@<TRIPOS>MOLECULE
ATP
   43    45     1     0     0
SMALL
USER_CHARGES

@<TRIPOS>ATOM
      1 PG         46.1070   45.1820   56.9500 P.3       1 ATP         1.3770
      2 O1G        45.7790   46.3300   56.0520 O.2       1 ATP        -0.9677
      3 O2G        47.3820   44.4970   56.6260 O.3       1 ATP        -0.9677
      4 O3G        45.9720   45.5300   58.3750 O.3       1 ATP        -0.9677
      5 PB         43.9110   43.7400   55.6550 P.3       1 ATP         1.5556
      6 O1B        42.9750   42.7220   55.9860 O.2       1 ATP        -0.9011
      7 O2B        43.6030   44.7670   54.6780 O.3       1 ATP        -0.9011
      8 O3B        45.0410   44.0150   56.7380 O.3       1 ATP        -0.7334
      9 PA         45.2280   42.6690   53.2570 P.3       1 ATP         1.4949
     10 O1A        46.3800   43.3960   52.7880 O.2       1 ATP        -0.8765
     11 O2A        44.1830   42.1900   52.3510 O.3       1 ATP        -0.8765
     12 O3A        44.9170   42.7160   54.7890 O.3       1 ATP        -0.7296
     13 O5'        46.1720   41.5680   53.3020 O.3       1 ATP        -0.5887
     14 C5'        46.6090   40.4220   53.5420 C.3       1 ATP         0.2136
     15 C4'        46.5200   38.9890   53.3640 C.3       1 ATP         0.0811
     16 O4'        46.7850   38.9080   51.9480 O.3       1 ATP        -0.4018
     17 C3'        47.8080   38.8740   54.1120 C.3       1 ATP         0.1038
     18 O3'        47.7130   38.3570   55.4230 O.3       1 ATP        -0.6406
     19 C2'        48.7190   38.1160   53.1390 C.3       1 ATP         0.0931
     20 O2'        48.6320   36.7370   53.4250 O.3       1 ATP        -0.5974
     21 C1'        48.1330   38.4090   51.7210 C.3       1 ATP         0.4237
     22 N9         48.8460   39.4640   50.9860 N.pl3     1 ATP        -0.6604
     23 C8         48.6160   40.8420   50.9450 C.ar      1 ATP         0.5724
     24 N7         49.4250   41.4890   50.1650 N.ar      1 ATP        -0.5948
     25 C5         50.2320   40.4700   49.6640 C.ar      1 ATP        -0.2221
     26 C6         51.3080   40.4660   48.7310 C.ar      1 ATP         0.7526
     27 N6         51.7210   41.5680   48.1290 N.pl3     1 ATP        -0.9835
     28 N1         51.9120   39.2740   48.4470 N.ar      1 ATP        -0.8434
     29 C2         51.4930   38.1510   49.0290 C.ar      1 ATP         0.6541
     30 N3         50.4910   38.0160   49.9000 N.ar      1 ATP        -0.7096
     31 C4         49.8920   39.2530   50.1710 C.ar      1 ATP         0.5683
     32 H5'1       47.6492   40.3457   53.1926 H         1 ATP         0.0410
     33 H5'2       46.5714   40.2346   54.6253 H         1 ATP         0.0410
     34 H4'        45.6654   38.3452   53.6190 H         1 ATP         0.0860
     35 H3'        48.2020   39.8423   54.4542 H         1 ATP         0.0492
     36 HO3'       47.0751   38.8571   56.1666 H         1 ATP         0.4877
     37 H2'        49.7910   38.3380   53.2466 H         1 ATP         0.0311
     38 HO2'       49.0003   36.3505   54.3868 H         1 ATP         0.4211
     39 H1'        48.1676   37.5175   51.0776 H         1 ATP         0.0971
     40 H8         47.8360   41.3900   51.4990 H         1 ATP         0.1259
     41 HN61       51.2389   42.5309   48.3533 H         1 ATP         0.4334
     42 HN62       52.5468   41.5221   47.4038 H         1 ATP         0.4334
     43 H2         52.0360   37.2290   48.7590 H         1 ATP         0.0265
@<TRIPOS>BOND
     1    1    2 2
     2    1    3 1
     3    1    4 1
     4    1    8 1
     5    5    6 2
     6    5    7 1
     7    5    8 1
     8    5   12 1
     9    9   10 2
    10    9   11 1
    11    9   12 1
    12    9   13 1
    13   13   14 1
    14   14   15 1
    15   14   32 1
    16   14   33 1
    17   15   16 1
    18   15   17 1
    19   15   34 1
    20   16   21 1
    21   17   18 1
    22   17   19 1
    23   17   35 1
    24   18   36 1
    25   19   20 1
    26   19   21 1
    27   19   37 1
    28   20   38 1
    29   21   22 1
    30   21   39 1
    31   22   23 ar
    32   22   31 ar
    33   23   24 ar
    34   23   40 1
    35   24   25 ar
    36   25   26 ar
    37   25   31 ar
    38   26   27 1
    39   26   28 ar
    40   27   41 1
    41   27   42 1
    42   28   29 ar
    43   29   30 ar
    44   29   43 1
    45   30   31 ar
@<TRIPOS>SUBSTRUCTURE
     1 ATP         1 GROUP   0 A     ****
@<TRIPOS>MOLECULE
[[[5-(6-aminopurin-9-yl)-3-hydroxy-4-oxido-tetrahydrofuran-2-yl]methoxy-oxido-phosphoryl]oxy-oxido-phosphoryl] phosphate
   42    44     1     0     0
SMALL
USER_CHARGES

@<TRIPOS>ATOM
      1 PG         46.1070   45.1820   56.9500 P.3       1 ATP         1.4428
      2 O1G        45.7790   46.3300   56.0520 O.2       1 ATP        -0.9729
      3 O2G        47.3820   44.4970   56.6260 O.3       1 ATP        -0.9729
      4 O3G        45.9720   45.5300   58.3750 O.3       1 ATP        -0.9729
      5 PB         43.9110   43.7400   55.6550 P.3       1 ATP         1.6739
      6 O1B        42.9750   42.7220   55.9860 O.2       1 ATP        -0.9236
      7 O2B        43.6030   44.7670   54.6780 O.3       1 ATP        -0.9236
      8 O3B        45.0410   44.0150   56.7380 O.3       1 ATP        -0.8099
      9 PA         45.2280   42.6690   53.2570 P.3       1 ATP         1.5803
     10 O1A        46.3800   43.3960   52.7880 O.2       1 ATP        -0.9204
     11 O2A        44.1830   42.1900   52.3510 O.3       1 ATP        -0.9204
     12 O3A        44.9170   42.7160   54.7890 O.3       1 ATP        -0.7978
     13 O5'        46.1720   41.5680   53.3020 O.3       1 ATP        -0.5633
     14 C5'        46.6090   40.4220   53.5420 C.3       1 ATP         0.2335
     15 C4'        46.5200   38.9890   53.3640 C.3       1 ATP         0.1120
     16 O4'        46.7850   38.9080   51.9480 O.3       1 ATP        -0.4735
     17 C3'        47.8080   38.8740   54.1120 C.3       1 ATP         0.0574
     18 O3'        47.7130   38.3570   55.4230 O.3       1 ATP        -0.6479
     19 C2'        48.7190   38.1160   53.1390 C.3       1 ATP         0.3654
     20 O2'        48.6320   36.7370   53.4250 O.3       1 ATP        -0.8727
     21 C1'        48.1330   38.4090   51.7210 C.3       1 ATP         0.2931
     22 N9         48.8460   39.4640   50.9860 N.pl3     1 ATP        -0.5819
     23 C8         48.6160   40.8420   50.9450 C.ar      1 ATP         0.5793
     24 N7         49.4250   41.4890   50.1650 N.ar      1 ATP        -0.6371
     25 C5         50.2320   40.4700   49.6640 C.ar      1 ATP        -0.1867
     26 C6         51.3080   40.4660   48.7310 C.ar      1 ATP         0.6386
     27 N6         51.7210   41.5680   48.1290 N.pl3     1 ATP        -0.9119
     28 N1         51.9120   39.2740   48.4470 N.ar      1 ATP        -0.8238
     29 C2         51.4930   38.1510   49.0290 C.ar      1 ATP         0.5955
     30 N3         50.4910   38.0160   49.9000 N.ar      1 ATP        -0.6677
     31 C4         49.8920   39.2530   50.1710 C.ar      1 ATP         0.5426
     32 H5'1       47.6492   40.3457   53.1926 H         1 ATP        -0.0096
     33 H5'2       46.5714   40.2346   54.6253 H         1 ATP        -0.0096
     34 H4'        45.6654   38.3452   53.6190 H         1 ATP         0.0474
     35 H3'        48.2020   39.8423   54.4542 H         1 ATP         0.1304
     36 HO3'       47.0751   38.8571   56.1666 H         1 ATP         0.4017
     37 H2'        49.7910   38.3380   53.2466 H         1 ATP        -0.0267
     38 H1'        48.1676   37.5175   51.0776 H         1 ATP         0.0537
     39 H8         47.8360   41.3900   51.4990 H         1 ATP         0.1290
     40 HN61       51.2389   42.5309   48.3533 H         1 ATP         0.3726
     41 HN62       52.5468   41.5221   47.4038 H         1 ATP         0.3726
     42 H2         52.0360   37.2290   48.7590 H         1 ATP         0.0047
@<TRIPOS>BOND
     1    1    2 2
     2    1    3 1
     3    1    4 1
     4    1    8 1
     5    5    6 2
     6    5    7 1
     7    5    8 1
     8    5   12 1
     9    9   10 2
    10    9   11 1
    11    9   12 1
    12    9   13 1
    13   13   14 1
    14   14   15 1
    15   14   32 1
    16   14   33 1
    17   15   16 1
    18   15   17 1
    19   15   34 1
    20   16   21 1
    21   17   18 1
    22   17   19 1
    23   17   35 1
    24   18   36 1
    25   19   20 1
    26   19   21 1
    27   19   37 1
    28   21   22 1
    29   21   38 1
    30   22   23 ar
    31   22   31 ar
    32   23   24 ar
    33   23   39 1
    34   24   25 ar
    35   25   26 ar
    36   25   31 ar
    37   26   27 1
    38   26   28 ar
    39   27   40 1
    40   27   41 1
    41   28   29 ar
    42   29   30 ar
    43   29   42 1
    44   30   31 ar
@<TRIPOS>SUBSTRUCTURE
     1 ATP         1 GROUP   0 A     ****
@<TRIPOS>MOLECULE
[[[5-(6-aminopurin-9-yl)-4-hydroxy-3-oxido-tetrahydrofuran-2-yl]methoxy-oxido-phosphoryl]oxy-oxido-phosphoryl] phosphate
   42    44     1     0     0
SMALL
USER_CHARGES

@<TRIPOS>ATOM
      1 PG         46.1070   45.1820   56.9500 P.3       1 ATP         1.4494
      2 O1G        45.7790   46.3300   56.0520 O.2       1 ATP        -0.9772
      3 O2G        47.3820   44.4970   56.6260 O.3       1 ATP        -0.9772
      4 O3G        45.9720   45.5300   58.3750 O.3       1 ATP        -0.9772
      5 PB         43.9110   43.7400   55.6550 P.3       1 ATP         1.6866
      6 O1B        42.9750   42.7220   55.9860 O.2       1 ATP        -0.9282
      7 O2B        43.6030   44.7670   54.6780 O.3       1 ATP        -0.9282
      8 O3B        45.0410   44.0150   56.7380 O.3       1 ATP        -0.8141
      9 PA         45.2280   42.6690   53.2570 P.3       1 ATP         1.5927
     10 O1A        46.3800   43.3960   52.7880 O.2       1 ATP        -0.9280
     11 O2A        44.1830   42.1900   52.3510 O.3       1 ATP        -0.9280
     12 O3A        44.9170   42.7160   54.7890 O.3       1 ATP        -0.8033
     13 O5'        46.1720   41.5680   53.3020 O.3       1 ATP        -0.5679
     14 C5'        46.6090   40.4220   53.5420 C.3       1 ATP         0.2430
     15 C4'        46.5200   38.9890   53.3640 C.3       1 ATP         0.0421
     16 O4'        46.7850   38.9080   51.9480 O.3       1 ATP        -0.3804
     17 C3'        47.8080   38.8740   54.1120 C.3       1 ATP         0.4450
     18 O3'        47.7130   38.3570   55.4230 O.3       1 ATP        -0.8293
     19 C2'        48.7190   38.1160   53.1390 C.3       1 ATP        -0.0278
     20 O2'        48.6320   36.7370   53.4250 O.3       1 ATP        -0.5458
     21 C1'        48.1330   38.4090   51.7210 C.3       1 ATP         0.3938
     22 N9         48.8460   39.4640   50.9860 N.pl3     1 ATP        -0.6355
     23 C8         48.6160   40.8420   50.9450 C.ar      1 ATP         0.6017
     24 N7         49.4250   41.4890   50.1650 N.ar      1 ATP        -0.6302
     25 C5         50.2320   40.4700   49.6640 C.ar      1 ATP        -0.1811
     26 C6         51.3080   40.4660   48.7310 C.ar      1 ATP         0.6509
     27 N6         51.7210   41.5680   48.1290 N.pl3     1 ATP        -0.9205
     28 N1         51.9120   39.2740   48.4470 N.ar      1 ATP        -0.8195
     29 C2         51.4930   38.1510   49.0290 C.ar      1 ATP         0.6090
     30 N3         50.4910   38.0160   49.9000 N.ar      1 ATP        -0.6925
     31 C4         49.8920   39.2530   50.1710 C.ar      1 ATP         0.5426
     32 H5'1       47.6492   40.3457   53.1926 H         1 ATP        -0.0038
     33 H5'2       46.5714   40.2346   54.6253 H         1 ATP        -0.0038
     34 H4'        45.6654   38.3452   53.6190 H         1 ATP         0.0768
     35 H3'        48.2020   39.8423   54.4542 H         1 ATP        -0.1159
     36 H2'        49.7910   38.3380   53.2466 H         1 ATP        -0.0084
     37 HO2'       49.0003   36.3505   54.3868 H         1 ATP         0.3257
     38 H1'        48.1676   37.5175   51.0776 H         1 ATP         0.0495
     39 H8         47.8360   41.3900   51.4990 H         1 ATP         0.1423
     40 HN61       51.2389   42.5309   48.3533 H         1 ATP         0.3820
     41 HN62       52.5468   41.5221   47.4038 H         1 ATP         0.3820
     42 H2         52.0360   37.2290   48.7590 H         1 ATP         0.0088
@<TRIPOS>BOND
     1    1    2 2
     2    1    3 1
     3    1    4 1
     4    1    8 1
     5    5    6 2
     6    5    7 1
     7    5    8 1
     8    5   12 1
     9    9   10 2
    10    9   11 1
    11    9   12 1
    12    9   13 1
    13   13   14 1
    14   14   15 1
    15   14   32 1
    16   14   33 1
    17   15   16 1
    18   15   17 1
    19   15   34 1
    20   16   21 1
    21   17   18 1
    22   17   19 1
    23   17   35 1
    24   19   20 1
    25   19   21 1
    26   19   36 1
    27   20   37 1
    28   21   22 1
    29   21   38 1
    30   22   23 ar
    31   22   31 ar
    32   23   24 ar
    33   23   39 1
    34   24   25 ar
    35   25   26 ar
    36   25   31 ar
    37   26   27 1
    38   26   28 ar
    39   27   40 1
    40   27   41 1
    41   28   29 ar
    42   29   30 ar
    43   29   42 1
    44   30   31 ar
@<TRIPOS>SUBSTRUCTURE
     1 ATP         1 GROUP   0 A     ****
@<TRIPOS>MOLECULE
[[[5-(6-azanidylpurin-9-yl)-3,4-dihydroxy-tetrahydrofuran-2-yl]methoxy-oxido-phosphoryl]oxy-oxido-phosphoryl] phosphate
   42    44     1     0     0
SMALL
USER_CHARGES

@<TRIPOS>ATOM
      1 PG         46.1070   45.1820   56.9500 P.3       1 ATP         1.4429
      2 O1G        45.7790   46.3300   56.0520 O.2       1 ATP        -0.9668
      3 O2G        47.3820   44.4970   56.6260 O.3       1 ATP        -0.9668
      4 O3G        45.9720   45.5300   58.3750 O.3       1 ATP        -0.9668
      5 PB         43.9110   43.7400   55.6550 P.3       1 ATP         1.6690
      6 O1B        42.9750   42.7220   55.9860 O.2       1 ATP        -0.9172
      7 O2B        43.6030   44.7670   54.6780 O.3       1 ATP        -0.9172
      8 O3B        45.0410   44.0150   56.7380 O.3       1 ATP        -0.8120
      9 PA         45.2280   42.6690   53.2570 P.3       1 ATP         1.5832
     10 O1A        46.3800   43.3960   52.7880 O.2       1 ATP        -0.9205
     11 O2A        44.1830   42.1900   52.3510 O.3       1 ATP        -0.9205
     12 O3A        44.9170   42.7160   54.7890 O.3       1 ATP        -0.7966
     13 O5'        46.1720   41.5680   53.3020 O.3       1 ATP        -0.5640
     14 C5'        46.6090   40.4220   53.5420 C.3       1 ATP         0.2279
     15 C4'        46.5200   38.9890   53.3640 C.3       1 ATP         0.1040
     16 O4'        46.7850   38.9080   51.9480 O.3       1 ATP        -0.4572
     17 C3'        47.8080   38.8740   54.1120 C.3       1 ATP         0.0646
     18 O3'        47.7130   38.3570   55.4230 O.3       1 ATP        -0.6281
     19 C2'        48.7190   38.1160   53.1390 C.3       1 ATP         0.0669
     20 O2'        48.6320   36.7370   53.4250 O.3       1 ATP        -0.6152
     21 C1'        48.1330   38.4090   51.7210 C.3       1 ATP         0.4342
     22 N9         48.8460   39.4640   50.9860 N.pl3     1 ATP        -0.6812
     23 C8         48.6160   40.8420   50.9450 C.ar      1 ATP         0.4747
     24 N7         49.4250   41.4890   50.1650 N.ar      1 ATP        -0.5578
     25 C5         50.2320   40.4700   49.6640 C.ar      1 ATP        -0.2254
     26 C6         51.3080   40.4660   48.7310 C.ar      1 ATP         0.6831
     27 N6         51.7210   41.5680   48.1290 N.2       1 ATP        -0.8118
     28 N1         51.9120   39.2740   48.4470 N.ar      1 ATP        -0.9538
     29 C2         51.4930   38.1510   49.0290 C.ar      1 ATP         0.6648
     30 N3         50.4910   38.0160   49.9000 N.ar      1 ATP        -0.8388
     31 C4         49.8920   39.2530   50.1710 C.ar      1 ATP         0.5591
     32 H5'1       47.6492   40.3457   53.1926 H         1 ATP         0.0037
     33 H5'2       46.5714   40.2346   54.6253 H         1 ATP         0.0037
     34 H4'        45.6654   38.3452   53.6190 H         1 ATP         0.0554
     35 H3'        48.2020   39.8423   54.4542 H         1 ATP         0.2009
     36 HO3'       47.0751   38.8571   56.1666 H         1 ATP         0.3824
     37 H2'        49.7910   38.3380   53.2466 H         1 ATP         0.1121
     38 HO2'       49.0003   36.3505   54.3868 H         1 ATP         0.3982
     39 H1'        48.1676   37.5175   51.0776 H         1 ATP         0.0719
     40 H8         47.8360   41.3900   51.4990 H         1 ATP         0.0856
     41 HN62       51.2389   42.5309   48.3533 H         1 ATP         0.2676
     42 H2         52.0360   37.2290   48.7590 H         1 ATP        -0.0380
@<TRIPOS>BOND
     1    1    2 2
     2    1    3 1
     3    1    4 1
     4    1    8 1
     5    5    6 2
     6    5    7 1
     7    5    8 1
     8    5   12 1
     9    9   10 2
    10    9   11 1
    11    9   12 1
    12    9   13 1
    13   13   14 1
    14   14   15 1
    15   14   32 1
    16   14   33 1
    17   15   16 1
    18   15   17 1
    19   15   34 1
    20   16   21 1
    21   17   18 1
    22   17   19 1
    23   17   35 1
    24   18   36 1
    25   19   20 1
    26   19   21 1
    27   19   37 1
    28   20   38 1
    29   21   22 1
    30   21   39 1
    31   22   23 ar
    32   22   31 ar
    33   23   24 ar
    34   23   40 1
    35   24   25 ar
    36   25   26 ar
    37   25   31 ar
    38   26   27 1
    39   26   28 ar
    40   27   41 1
    41   28   29 ar
    42   29   30 ar
    43   29   42 1
    44   30   31 ar
@<TRIPOS>SUBSTRUCTURE
     1 ATP         1 GROUP   0 A     ****
@<TRIPOS>MOLECULE
[[[5-(6-aminopurin-9-yl)-3,4-dihydroxy-tetrahydrofuran-2-yl]methoxy-oxido-phosphoryl]oxy-oxido-phosphoryl] hydrogen phosphate
   44    46     1     0     0
SMALL
USER_CHARGES

@<TRIPOS>ATOM
      1 PG         46.1070   45.1820   56.9500 P.3       1 ATP         1.5607
      2 O1G        45.7790   46.3300   56.0520 O.2       1 ATP        -0.8960
      3 O2G        47.3820   44.4970   56.6260 O.3       1 ATP        -0.8960
      4 O3G        45.9720   45.5300   58.3750 O.3       1 ATP        -0.8239
      5 PB         43.9110   43.7400   55.6550 P.3       1 ATP         1.6966
      6 O1B        42.9750   42.7220   55.9860 O.2       1 ATP        -0.8971
      7 O2B        43.6030   44.7670   54.6780 O.3       1 ATP        -0.8971
      8 O3B        45.0410   44.0150   56.7380 O.3       1 ATP        -0.8198
      9 PA         45.2280   42.6690   53.2570 P.3       1 ATP         1.5948
     10 O1A        46.3800   43.3960   52.7880 O.2       1 ATP        -0.8887
     11 O2A        44.1830   42.1900   52.3510 O.3       1 ATP        -0.8887
     12 O3A        44.9170   42.7160   54.7890 O.3       1 ATP        -0.8116
     13 O5'        46.1720   41.5680   53.3020 O.3       1 ATP        -0.5653
     14 C5'        46.6090   40.4220   53.5420 C.3       1 ATP         0.2147
     15 C4'        46.5200   38.9890   53.3640 C.3       1 ATP         0.0822
     16 O4'        46.7850   38.9080   51.9480 O.3       1 ATP        -0.3968
     17 C3'        47.8080   38.8740   54.1120 C.3       1 ATP         0.0777
     18 O3'        47.7130   38.3570   55.4230 O.3       1 ATP        -0.6053
     19 C2'        48.7190   38.1160   53.1390 C.3       1 ATP         0.1029
     20 O2'        48.6320   36.7370   53.4250 O.3       1 ATP        -0.6003
     21 C1'        48.1330   38.4090   51.7210 C.3       1 ATP         0.3969
     22 N9         48.8460   39.4640   50.9860 N.pl3     1 ATP        -0.6765
     23 C8         48.6160   40.8420   50.9450 C.ar      1 ATP         0.5773
     24 N7         49.4250   41.4890   50.1650 N.ar      1 ATP        -0.5856
     25 C5         50.2320   40.4700   49.6640 C.ar      1 ATP        -0.2039
     26 C6         51.3080   40.4660   48.7310 C.ar      1 ATP         0.7035
     27 N6         51.7210   41.5680   48.1290 N.pl3     1 ATP        -0.9299
     28 N1         51.9120   39.2740   48.4470 N.ar      1 ATP        -0.8060
     29 C2         51.4930   38.1510   49.0290 C.ar      1 ATP         0.6467
     30 N3         50.4910   38.0160   49.9000 N.ar      1 ATP        -0.6985
     31 C4         49.8920   39.2530   50.1710 C.ar      1 ATP         0.5682
     32 HOG3       46.5992   46.3224   58.8095 H         1 ATP         0.4411
     33 H5'1       47.6492   40.3457   53.1926 H         1 ATP         0.0359
     34 H5'2       46.5714   40.2346   54.6253 H         1 ATP         0.0359
     35 H4'        45.6654   38.3452   53.6190 H         1 ATP         0.0912
     36 H3'        48.2020   39.8423   54.4542 H         1 ATP         0.0608
     37 HO3'       47.0751   38.8571   56.1666 H         1 ATP         0.4331
     38 H2'        49.7910   38.3380   53.2466 H         1 ATP         0.0715
     39 HO2'       49.0003   36.3505   54.3868 H         1 ATP         0.4282
     40 H1'        48.1676   37.5175   51.0776 H         1 ATP         0.0952
     41 H8         47.8360   41.3900   51.4990 H         1 ATP         0.1205
     42 HN61       51.2389   42.5309   48.3533 H         1 ATP         0.4093
     43 HN62       52.5468   41.5221   47.4038 H         1 ATP         0.4093
     44 H2         52.0360   37.2290   48.7590 H         1 ATP         0.0326
@<TRIPOS>BOND
     1    1    2 2
     2    1    3 1
     3    1    4 1
     4    1    8 1
     5    4   32 1
     6    5    6 2
     7    5    7 1
     8    5    8 1
     9    5   12 1
    10    9   10 2
    11    9   11 1
    12    9   12 1
    13    9   13 1
    14   13   14 1
    15   14   15 1
    16   14   33 1
    17   14   34 1
    18   15   16 1
    19   15   17 1
    20   15   35 1
    21   16   21 1
    22   17   18 1
    23   17   19 1
    24   17   36 1
    25   18   37 1
    26   19   20 1
    27   19   21 1
    28   19   38 1
    29   20   39 1
    30   21   22 1
    31   21   40 1
    32   22   23 ar
    33   22   31 ar
    34   23   24 ar
    35   23   41 1
    36   24   25 ar
    37   25   26 ar
    38   25   31 ar
    39   26   27 1
    40   26   28 ar
    41   27   42 1
    42   27   43 1
    43   28   29 ar
    44   29   30 ar
    45   29   44 1
    46   30   31 ar
@<TRIPOS>SUBSTRUCTURE
     1 ATP         1 GROUP   0 A     ****
