@<TRIPOS>MOLECULE
COA
   81    83     1     0     0
SMALL
USER_CHARGES

@<TRIPOS>ATOM
      1 N1A        88.6040  -84.6940  -15.4010 N.ar      1 COA        -0.8105
      2 C2A        88.5170  -85.3620  -16.6140 C.ar      1 COA         0.6362
      3 N3A        88.4530  -84.8110  -17.8270 N.ar      1 COA        -0.6919
      4 C4A        88.4890  -83.4640  -17.7910 C.ar      1 COA         0.5720
      5 C5A        88.5780  -82.6230  -16.6440 C.ar      1 COA        -0.1999
      6 C6A        88.6370  -83.3150  -15.3450 C.ar      1 COA         0.6853
      7 N6A        88.7190  -82.6940  -14.2090 N.pl3     1 COA        -0.9288
      8 N7A        88.5930  -81.3110  -16.9840 N.ar      1 COA        -0.5992
      9 C8A        88.5140  -81.2930  -18.3130 C.ar      1 COA         0.5868
     10 N9A        88.4440  -82.5690  -18.8600 N.pl3     1 COA        -0.6610
     11 C1B        88.2830  -82.8930  -20.3050 C.3       1 COA         0.3915
     12 C2B        89.1690  -84.0030  -20.8100 C.3       1 COA         0.0981
     13 O2B        90.4930  -83.5370  -21.0680 O.3       1 COA        -0.6053
     14 C3B        88.4470  -84.3520  -22.1030 C.3       1 COA         0.1441
     15 O3B        88.5340  -83.3380  -23.0200 O.3       1 COA        -0.5756
     16 P3B        88.5670  -83.7630  -24.6320 P.3       1 COA         1.4249
     17 O7A        89.7760  -84.7730  -24.8120 O.2       1 COA        -0.8270
     18 O8A        88.8680  -82.4540  -25.4620 O.3       1 COA        -0.8270
     19 O9A        87.1870  -84.4450  -25.0050 O.3       1 COA        -0.7946
     20 C4B        86.9970  -84.4910  -21.5560 C.3       1 COA         0.1099
     21 O4B        86.9570  -83.4610  -20.4760 O.3       1 COA        -0.4142
     22 C5B        86.5780  -85.7930  -20.9340 C.3       1 COA         0.1690
     23 O5B        86.6630  -86.7650  -22.0150 O.3       1 COA        -0.5767
     24 P1A        85.5120  -87.8990  -22.1320 P.3       1 COA         1.5942
     25 O1A        85.9730  -88.8420  -23.2310 O.2       1 COA        -0.8791
     26 O2A        84.1350  -87.3250  -22.2760 O.3       1 COA        -0.8791
     27 O3A        85.5440  -88.6720  -20.8060 O.3       1 COA        -0.8182
     28 P2A        86.5260  -89.8380  -20.2320 P.3       1 COA         1.5892
     29 O4A        85.9410  -91.2220  -20.3870 O.2       1 COA        -0.8759
     30 O5A        87.9130  -89.7660  -20.8150 O.3       1 COA        -0.8759
     31 O6A        86.6310  -89.4110  -18.6740 O.3       1 COA        -0.6071
     32 CBP        85.9600  -88.6360  -16.5360 C.3       1 COA        -0.0721
     33 CCP        85.5210  -89.4080  -17.8120 C.3       1 COA         0.1955
     34 CDP        87.4920  -88.7900  -16.2100 C.3       1 COA        -0.0851
     35 CEP        85.6020  -87.2100  -16.9500 C.3       1 COA        -0.0851
     36 CAP        85.1850  -89.1370  -15.2540 C.3       1 COA         0.0932
     37 OAP        85.5020  -88.2660  -14.1280 O.3       1 COA        -0.6201
     38 C9P        83.6680  -89.1660  -15.4160 C.2       1 COA         0.6400
     39 O9P        83.0890  -90.0690  -16.2240 O.2       1 COA        -0.7034
     40 N8P        82.9960  -88.2770  -14.7190 N.am      1 COA        -0.5470
     41 C7P        81.5360  -88.1930  -14.7460 C.3       1 COA         0.1138
     42 C6P        81.0500  -88.2840  -13.2980 C.3       1 COA        -0.1777
     43 C5P        81.4830  -89.5720  -12.6330 C.2       1 COA         0.6670
     44 O5P        81.5080  -90.7220  -13.2480 O.2       1 COA        -0.6046
     45 N4P        81.8280  -89.4210  -11.3700 N.am      1 COA        -0.6060
     46 C3P        82.3050  -90.5540  -10.4610 C.3       1 COA         0.1026
     47 C2P        81.0660  -91.3020  -10.0080 C.3       1 COA        -0.0096
     48 S1P        81.4370  -92.6410   -8.8190 S.3       1 COA        -0.4288
     49 H2A        88.4990  -86.4230  -16.5720 H         1 COA         0.0280
     50 H61A       88.7598  -83.2668  -13.2708 H         1 COA         0.4018
     51 H62A       88.7477  -81.5947  -14.1840 H         1 COA         0.4018
     52 H8A        88.5050  -80.4030  -18.8910 H         1 COA         0.1419
     53 H1B        88.4770  -81.9515  -20.8397 H         1 COA         0.0942
     54 H2B        89.3598  -84.8274  -20.1072 H         1 COA         0.0810
     55 HO2A       91.1454  -83.2437  -20.2324 H         1 COA         0.4311
     56 H3B        88.8713  -85.1623  -22.7140 H         1 COA         0.0988
     57 HOA9       86.8712  -85.3646  -24.4906 H         1 COA         0.4231
     58 H4B        86.2834  -84.3952  -22.3877 H         1 COA         0.1013
     59 H51A       87.2605  -86.0410  -20.1077 H         1 COA         0.0425
     60 H52A       85.5523  -85.7014  -20.5474 H         1 COA         0.0425
     61 H121       84.6753  -88.9064  -18.3050 H         1 COA         0.0323
     62 H122       85.2421  -90.4441  -17.5697 H         1 COA         0.0323
     63 H131       88.0860  -88.4540  -17.0727 H         1 COA         0.0378
     64 H132       87.7175  -89.8456  -15.9983 H         1 COA         0.0378
     65 H133       87.7432  -88.1780  -15.3311 H         1 COA         0.0378
     66 H141       86.1780  -86.9326  -17.8451 H         1 COA         0.0378
     67 H142       85.8437  -86.5184  -16.1295 H         1 COA         0.0378
     68 H143       84.5265  -87.1522  -17.1735 H         1 COA         0.0378
     69 H10        85.5087  -90.1600  -15.0118 H         1 COA         0.1071
     70 HO1        86.5501  -88.1036  -13.8363 H         1 COA         0.4031
     71 HN8        83.5757  -87.5785  -14.0977 H         1 COA         0.3862
     72 H71        81.2320  -87.2366  -15.1965 H         1 COA         0.0708
     73 H72        81.1319  -89.0242  -15.3425 H         1 COA         0.0708
     74 H61        81.4621  -87.4441  -12.7195 H         1 COA         0.0740
     75 H62        79.9511  -88.2397  -13.2766 H         1 COA         0.0740
     76 HN4        81.7547  -88.3956  -10.9785 H         1 COA         0.3080
     77 H31        82.9779  -91.2173  -11.0242 H         1 COA         0.0594
     78 H32        82.8431  -90.1313   -9.5998 H         1 COA         0.0594
     79 H21        80.3736  -90.6017   -9.5181 H         1 COA         0.0785
     80 H22        80.5724  -91.7559  -10.8800 H         1 COA         0.0785
     81 HS1        80.6217  -93.2588   -8.4145 H         1 COA         0.2237
@<TRIPOS>BOND
     1    1    2 ar
     2    1    6 ar
     3    2    3 ar
     4    2   49 1
     5    3    4 ar
     6    4    5 ar
     7    4   10 ar
     8    5    6 ar
     9    5    8 ar
    10    6    7 1
    11    7   50 1
    12    7   51 1
    13    8    9 ar
    14    9   10 ar
    15    9   52 1
    16   10   11 1
    17   11   12 1
    18   11   21 1
    19   11   53 1
    20   12   13 1
    21   12   14 1
    22   12   54 1
    23   13   55 1
    24   14   15 1
    25   14   20 1
    26   14   56 1
    27   15   16 1
    28   16   17 2
    29   16   18 1
    30   16   19 1
    31   19   57 1
    32   20   21 1
    33   20   22 1
    34   20   58 1
    35   22   23 1
    36   22   59 1
    37   22   60 1
    38   23   24 1
    39   24   25 2
    40   24   26 1
    41   24   27 1
    42   27   28 1
    43   28   29 2
    44   28   30 1
    45   28   31 1
    46   31   33 1
    47   32   33 1
    48   32   34 1
    49   32   35 1
    50   32   36 1
    51   33   61 1
    52   33   62 1
    53   34   63 1
    54   34   64 1
    55   34   65 1
    56   35   66 1
    57   35   67 1
    58   35   68 1
    59   36   37 1
    60   36   38 1
    61   36   69 1
    62   37   70 1
    63   38   39 2
    64   38   40 am
    65   40   41 1
    66   40   71 1
    67   41   42 1
    68   41   72 1
    69   41   73 1
    70   42   43 1
    71   42   74 1
    72   42   75 1
    73   43   44 2
    74   43   45 am
    75   45   46 1
    76   45   76 1
    77   46   47 1
    78   46   77 1
    79   46   78 1
    80   47   48 1
    81   47   79 1
    82   47   80 1
    83   48   81 1
@<TRIPOS>SUBSTRUCTURE
     1 COA         1 GROUP   0 A     ****
@<TRIPOS>MOLECULE
[5-(6-aminopurin-9-yl)-4-hydroxy-2-[[[hydroxy-[3-hydroxy-2,2-dimethyl-4-oxo-4-[[3-oxo-3-(2-sulfanylethylamino)propyl]amino]butoxy]phosphoryl]oxy-oxido-phosphoryl]oxymethyl]tetrahydrofuran-3-yl] hydrogen phosphate
   82    84     1     0     0
SMALL
USER_CHARGES

@<TRIPOS>ATOM
      1 N1A        88.6040  -84.6940  -15.4010 N.ar      1 COA        -0.8124
      2 C2A        88.5170  -85.3620  -16.6140 C.ar      1 COA         0.6600
      3 N3A        88.4530  -84.8110  -17.8270 N.ar      1 COA        -0.7150
      4 C4A        88.4890  -83.4640  -17.7910 C.ar      1 COA         0.5627
      5 C5A        88.5780  -82.6230  -16.6440 C.ar      1 COA        -0.2040
      6 C6A        88.6370  -83.3150  -15.3450 C.ar      1 COA         0.7145
      7 N6A        88.7190  -82.6940  -14.2090 N.pl3     1 COA        -0.9358
      8 N7A        88.5930  -81.3110  -16.9840 N.ar      1 COA        -0.5811
      9 C8A        88.5140  -81.2930  -18.3130 C.ar      1 COA         0.5733
     10 N9A        88.4440  -82.5690  -18.8600 N.pl3     1 COA        -0.6786
     11 C1B        88.2830  -82.8930  -20.3050 C.3       1 COA         0.3912
     12 C2B        89.1690  -84.0030  -20.8100 C.3       1 COA         0.0899
     13 O2B        90.4930  -83.5370  -21.0680 O.3       1 COA        -0.5699
     14 C3B        88.4470  -84.3520  -22.1030 C.3       1 COA         0.1895
     15 O3B        88.5340  -83.3380  -23.0200 O.3       1 COA        -0.5556
     16 P3B        88.5670  -83.7630  -24.6320 P.3       1 COA         1.4309
     17 O7A        89.7760  -84.7730  -24.8120 O.2       1 COA        -0.8323
     18 O8A        88.8680  -82.4540  -25.4620 O.3       1 COA        -0.8323
     19 O9A        87.1870  -84.4450  -25.0050 O.3       1 COA        -0.7783
     20 C4B        86.9970  -84.4910  -21.5560 C.3       1 COA         0.1039
     21 O4B        86.9570  -83.4610  -20.4760 O.3       1 COA        -0.4164
     22 C5B        86.5780  -85.7930  -20.9340 C.3       1 COA         0.1567
     23 O5B        86.6630  -86.7650  -22.0150 O.3       1 COA        -0.5714
     24 P1A        85.5120  -87.8990  -22.1320 P.3       1 COA         1.5643
     25 O1A        85.9730  -88.8420  -23.2310 O.2       1 COA        -0.8353
     26 O2A        84.1350  -87.3250  -22.2760 O.3       1 COA        -0.8353
     27 O3A        85.5440  -88.6720  -20.8060 O.3       1 COA        -0.7869
     28 P2A        86.5260  -89.8380  -20.2320 P.3       1 COA         1.7892
     29 O4A        85.9410  -91.2220  -20.3870 O.2       1 COA        -0.8781
     30 O5A        87.9130  -89.7660  -20.8150 O.3       1 COA        -0.7896
     31 O6A        86.6310  -89.4110  -18.6740 O.3       1 COA        -0.6004
     32 CBP        85.9600  -88.6360  -16.5360 C.3       1 COA        -0.0443
     33 CCP        85.5210  -89.4080  -17.8120 C.3       1 COA         0.1835
     34 CDP        87.4920  -88.7900  -16.2100 C.3       1 COA        -0.0980
     35 CEP        85.6020  -87.2100  -16.9500 C.3       1 COA        -0.0980
     36 CAP        85.1850  -89.1370  -15.2540 C.3       1 COA         0.0901
     37 OAP        85.5020  -88.2660  -14.1280 O.3       1 COA        -0.5941
     38 C9P        83.6680  -89.1660  -15.4160 C.2       1 COA         0.6293
     39 O9P        83.0890  -90.0690  -16.2240 O.2       1 COA        -0.6480
     40 N8P        82.9960  -88.2770  -14.7190 N.am      1 COA        -0.5693
     41 C7P        81.5360  -88.1930  -14.7460 C.3       1 COA         0.1128
     42 C6P        81.0500  -88.2840  -13.2980 C.3       1 COA        -0.1801
     43 C5P        81.4830  -89.5720  -12.6330 C.2       1 COA         0.6684
     44 O5P        81.5080  -90.7220  -13.2480 O.2       1 COA        -0.6179
     45 N4P        81.8280  -89.4210  -11.3700 N.am      1 COA        -0.5762
     46 C3P        82.3050  -90.5540  -10.4610 C.3       1 COA         0.0882
     47 C2P        81.0660  -91.3020  -10.0080 C.3       1 COA        -0.0238
     48 S1P        81.4370  -92.6410   -8.8190 S.3       1 COA        -0.3846
     49 H2A        88.4990  -86.4230  -16.5720 H         1 COA         0.0398
     50 H61A       88.7598  -83.2668  -13.2708 H         1 COA         0.4157
     51 H62A       88.7477  -81.5947  -14.1840 H         1 COA         0.4157
     52 H8A        88.5050  -80.4030  -18.8910 H         1 COA         0.1152
     53 H1B        88.4770  -81.9515  -20.8397 H         1 COA         0.1086
     54 H2B        89.3598  -84.8274  -20.1072 H         1 COA         0.0474
     55 HO2A       91.1454  -83.2437  -20.2324 H         1 COA         0.4033
     56 H3B        88.8713  -85.1623  -22.7140 H         1 COA         0.0852
     57 HOA9       86.8712  -85.3646  -24.4906 H         1 COA         0.4227
     58 H4B        86.2834  -84.3952  -22.3877 H         1 COA         0.1115
     59 H51A       87.2605  -86.0410  -20.1077 H         1 COA         0.0477
     60 H52A       85.5523  -85.7014  -20.5474 H         1 COA         0.0477
     61 HOA5       88.0786  -90.0175  -21.8730 H         1 COA         0.4613
     62 H121       84.6753  -88.9064  -18.3050 H         1 COA         0.0594
     63 H122       85.2421  -90.4441  -17.5697 H         1 COA         0.0594
     64 H131       88.0860  -88.4540  -17.0727 H         1 COA         0.0462
     65 H132       87.7175  -89.8456  -15.9983 H         1 COA         0.0462
     66 H133       87.7432  -88.1780  -15.3311 H         1 COA         0.0462
     67 H141       86.1780  -86.9326  -17.8451 H         1 COA         0.0462
     68 H142       85.8437  -86.5184  -16.1295 H         1 COA         0.0462
     69 H143       84.5265  -87.1522  -17.1735 H         1 COA         0.0462
     70 H10        85.5087  -90.1600  -15.0118 H         1 COA         0.0899
     71 HO1        86.5501  -88.1036  -13.8363 H         1 COA         0.4116
     72 HN8        83.5757  -87.5785  -14.0977 H         1 COA         0.3314
     73 H71        81.2320  -87.2366  -15.1965 H         1 COA         0.0674
     74 H72        81.1319  -89.0242  -15.3425 H         1 COA         0.0674
     75 H61        81.4621  -87.4441  -12.7195 H         1 COA         0.0789
     76 H62        79.9511  -88.2397  -13.2766 H         1 COA         0.0789
     77 HN4        81.7547  -88.3956  -10.9785 H         1 COA         0.3104
     78 H31        82.9779  -91.2173  -11.0242 H         1 COA         0.0638
     79 H32        82.8431  -90.1313   -9.5998 H         1 COA         0.0638
     80 H21        80.3736  -90.6017   -9.5181 H         1 COA         0.0705
     81 H22        80.5724  -91.7559  -10.8800 H         1 COA         0.0705
     82 HS1        80.6217  -93.2588   -8.4145 H         1 COA         0.2218
@<TRIPOS>BOND
     1    1    2 ar
     2    1    6 ar
     3    2    3 ar
     4    2   49 1
     5    3    4 ar
     6    4    5 ar
     7    4   10 ar
     8    5    6 ar
     9    5    8 ar
    10    6    7 1
    11    7   50 1
    12    7   51 1
    13    8    9 ar
    14    9   10 ar
    15    9   52 1
    16   10   11 1
    17   11   12 1
    18   11   21 1
    19   11   53 1
    20   12   13 1
    21   12   14 1
    22   12   54 1
    23   13   55 1
    24   14   15 1
    25   14   20 1
    26   14   56 1
    27   15   16 1
    28   16   17 2
    29   16   18 1
    30   16   19 1
    31   19   57 1
    32   20   21 1
    33   20   22 1
    34   20   58 1
    35   22   23 1
    36   22   59 1
    37   22   60 1
    38   23   24 1
    39   24   25 2
    40   24   26 1
    41   24   27 1
    42   27   28 1
    43   28   29 2
    44   28   30 1
    45   28   31 1
    46   30   61 1
    47   31   33 1
    48   32   33 1
    49   32   34 1
    50   32   35 1
    51   32   36 1
    52   33   62 1
    53   33   63 1
    54   34   64 1
    55   34   65 1
    56   34   66 1
    57   35   67 1
    58   35   68 1
    59   35   69 1
    60   36   37 1
    61   36   38 1
    62   36   70 1
    63   37   71 1
    64   38   39 2
    65   38   40 am
    66   40   41 1
    67   40   72 1
    68   41   42 1
    69   41   73 1
    70   41   74 1
    71   42   43 1
    72   42   75 1
    73   42   76 1
    74   43   44 2
    75   43   45 am
    76   45   46 1
    77   45   77 1
    78   46   47 1
    79   46   78 1
    80   46   79 1
    81   47   48 1
    82   47   80 1
    83   47   81 1
    84   48   82 1
@<TRIPOS>SUBSTRUCTURE
     1 COA         1 GROUP   0 A     ****
@<TRIPOS>MOLECULE
[5-(6-aminopurin-9-yl)-4-hydroxy-2-[[hydroxy-[[3-hydroxy-2,2-dimethyl-4-oxo-4-[[3-oxo-3-(2-sulfanylethylamino)propyl]amino]butoxy]-oxido-phosphoryl]oxy-phosphoryl]oxymethyl]tetrahydrofuran-3-yl] hydrogen phosphate
   82    84     1     0     0
SMALL
USER_CHARGES

@<TRIPOS>ATOM
      1 N1A        88.6040  -84.6940  -15.4010 N.ar      1 COA        -0.8075
      2 C2A        88.5170  -85.3620  -16.6140 C.ar      1 COA         0.6643
      3 N3A        88.4530  -84.8110  -17.8270 N.ar      1 COA        -0.7150
      4 C4A        88.4890  -83.4640  -17.7910 C.ar      1 COA         0.5706
      5 C5A        88.5780  -82.6230  -16.6440 C.ar      1 COA        -0.2100
      6 C6A        88.6370  -83.3150  -15.3450 C.ar      1 COA         0.7180
      7 N6A        88.7190  -82.6940  -14.2090 N.pl3     1 COA        -0.9360
      8 N7A        88.5930  -81.3110  -16.9840 N.ar      1 COA        -0.5806
      9 C8A        88.5140  -81.2930  -18.3130 C.ar      1 COA         0.5655
     10 N9A        88.4440  -82.5690  -18.8600 N.pl3     1 COA        -0.6775
     11 C1B        88.2830  -82.8930  -20.3050 C.3       1 COA         0.3880
     12 C2B        89.1690  -84.0030  -20.8100 C.3       1 COA         0.0897
     13 O2B        90.4930  -83.5370  -21.0680 O.3       1 COA        -0.5603
     14 C3B        88.4470  -84.3520  -22.1030 C.3       1 COA         0.2022
     15 O3B        88.5340  -83.3380  -23.0200 O.3       1 COA        -0.5532
     16 P3B        88.5670  -83.7630  -24.6320 P.3       1 COA         1.4335
     17 O7A        89.7760  -84.7730  -24.8120 O.2       1 COA        -0.8304
     18 O8A        88.8680  -82.4540  -25.4620 O.3       1 COA        -0.8304
     19 O9A        87.1870  -84.4450  -25.0050 O.3       1 COA        -0.7776
     20 C4B        86.9970  -84.4910  -21.5560 C.3       1 COA         0.1014
     21 O4B        86.9570  -83.4610  -20.4760 O.3       1 COA        -0.4230
     22 C5B        86.5780  -85.7930  -20.9340 C.3       1 COA         0.1674
     23 O5B        86.6630  -86.7650  -22.0150 O.3       1 COA        -0.5877
     24 P1A        85.5120  -87.8990  -22.1320 P.3       1 COA         1.7978
     25 O1A        85.9730  -88.8420  -23.2310 O.2       1 COA        -0.8782
     26 O2A        84.1350  -87.3250  -22.2760 O.3       1 COA        -0.8041
     27 O3A        85.5440  -88.6720  -20.8060 O.3       1 COA        -0.7946
     28 P2A        86.5260  -89.8380  -20.2320 P.3       1 COA         1.5714
     29 O4A        85.9410  -91.2220  -20.3870 O.2       1 COA        -0.8360
     30 O5A        87.9130  -89.7660  -20.8150 O.3       1 COA        -0.8360
     31 O6A        86.6310  -89.4110  -18.6740 O.3       1 COA        -0.5726
     32 CBP        85.9600  -88.6360  -16.5360 C.3       1 COA        -0.0514
     33 CCP        85.5210  -89.4080  -17.8120 C.3       1 COA         0.1937
     34 CDP        87.4920  -88.7900  -16.2100 C.3       1 COA        -0.0807
     35 CEP        85.6020  -87.2100  -16.9500 C.3       1 COA        -0.0807
     36 CAP        85.1850  -89.1370  -15.2540 C.3       1 COA         0.0873
     37 OAP        85.5020  -88.2660  -14.1280 O.3       1 COA        -0.5839
     38 C9P        83.6680  -89.1660  -15.4160 C.2       1 COA         0.6234
     39 O9P        83.0890  -90.0690  -16.2240 O.2       1 COA        -0.6418
     40 N8P        82.9960  -88.2770  -14.7190 N.am      1 COA        -0.5640
     41 C7P        81.5360  -88.1930  -14.7460 C.3       1 COA         0.1050
     42 C6P        81.0500  -88.2840  -13.2980 C.3       1 COA        -0.1725
     43 C5P        81.4830  -89.5720  -12.6330 C.2       1 COA         0.6692
     44 O5P        81.5080  -90.7220  -13.2480 O.2       1 COA        -0.6103
     45 N4P        81.8280  -89.4210  -11.3700 N.am      1 COA        -0.5840
     46 C3P        82.3050  -90.5540  -10.4610 C.3       1 COA         0.0925
     47 C2P        81.0660  -91.3020  -10.0080 C.3       1 COA        -0.0214
     48 S1P        81.4370  -92.6410   -8.8190 S.3       1 COA        -0.3888
     49 H2A        88.4990  -86.4230  -16.5720 H         1 COA         0.0432
     50 H61A       88.7598  -83.2668  -13.2708 H         1 COA         0.4179
     51 H62A       88.7477  -81.5947  -14.1840 H         1 COA         0.4179
     52 H8A        88.5050  -80.4030  -18.8910 H         1 COA         0.1041
     53 H1B        88.4770  -81.9515  -20.8397 H         1 COA         0.1122
     54 H2B        89.3598  -84.8274  -20.1072 H         1 COA         0.0390
     55 HO2A       91.1454  -83.2437  -20.2324 H         1 COA         0.4012
     56 H3B        88.8713  -85.1623  -22.7140 H         1 COA         0.0855
     57 HOA9       86.8712  -85.3646  -24.4906 H         1 COA         0.4252
     58 H4B        86.2834  -84.3952  -22.3877 H         1 COA         0.1138
     59 H51A       87.2605  -86.0410  -20.1077 H         1 COA         0.0612
     60 H52A       85.5523  -85.7014  -20.5474 H         1 COA         0.0612
     61 HOA2       83.8791  -86.7250  -23.1617 H         1 COA         0.4611
     62 H121       84.6753  -88.9064  -18.3050 H         1 COA         0.0202
     63 H122       85.2421  -90.4441  -17.5697 H         1 COA         0.0202
     64 H131       88.0860  -88.4540  -17.0727 H         1 COA         0.0453
     65 H132       87.7175  -89.8456  -15.9983 H         1 COA         0.0453
     66 H133       87.7432  -88.1780  -15.3311 H         1 COA         0.0453
     67 H141       86.1780  -86.9326  -17.8451 H         1 COA         0.0453
     68 H142       85.8437  -86.5184  -16.1295 H         1 COA         0.0453
     69 H143       84.5265  -87.1522  -17.1735 H         1 COA         0.0453
     70 H10        85.5087  -90.1600  -15.0118 H         1 COA         0.0633
     71 HO1        86.5501  -88.1036  -13.8363 H         1 COA         0.4033
     72 HN8        83.5757  -87.5785  -14.0977 H         1 COA         0.3418
     73 H71        81.2320  -87.2366  -15.1965 H         1 COA         0.0727
     74 H72        81.1319  -89.0242  -15.3425 H         1 COA         0.0727
     75 H61        81.4621  -87.4441  -12.7195 H         1 COA         0.0740
     76 H62        79.9511  -88.2397  -13.2766 H         1 COA         0.0740
     77 HN4        81.7547  -88.3956  -10.9785 H         1 COA         0.3079
     78 H31        82.9779  -91.2173  -11.0242 H         1 COA         0.0613
     79 H32        82.8431  -90.1313   -9.5998 H         1 COA         0.0613
     80 H21        80.3736  -90.6017   -9.5181 H         1 COA         0.0686
     81 H22        80.5724  -91.7559  -10.8800 H         1 COA         0.0686
     82 HS1        80.6217  -93.2588   -8.4145 H         1 COA         0.2244
@<TRIPOS>BOND
     1    1    2 ar
     2    1    6 ar
     3    2    3 ar
     4    2   49 1
     5    3    4 ar
     6    4    5 ar
     7    4   10 ar
     8    5    6 ar
     9    5    8 ar
    10    6    7 1
    11    7   50 1
    12    7   51 1
    13    8    9 ar
    14    9   10 ar
    15    9   52 1
    16   10   11 1
    17   11   12 1
    18   11   21 1
    19   11   53 1
    20   12   13 1
    21   12   14 1
    22   12   54 1
    23   13   55 1
    24   14   15 1
    25   14   20 1
    26   14   56 1
    27   15   16 1
    28   16   17 2
    29   16   18 1
    30   16   19 1
    31   19   57 1
    32   20   21 1
    33   20   22 1
    34   20   58 1
    35   22   23 1
    36   22   59 1
    37   22   60 1
    38   23   24 1
    39   24   25 2
    40   24   26 1
    41   24   27 1
    42   26   61 1
    43   27   28 1
    44   28   29 2
    45   28   30 1
    46   28   31 1
    47   31   33 1
    48   32   33 1
    49   32   34 1
    50   32   35 1
    51   32   36 1
    52   33   62 1
    53   33   63 1
    54   34   64 1
    55   34   65 1
    56   34   66 1
    57   35   67 1
    58   35   68 1
    59   35   69 1
    60   36   37 1
    61   36   38 1
    62   36   70 1
    63   37   71 1
    64   38   39 2
    65   38   40 am
    66   40   41 1
    67   40   72 1
    68   41   42 1
    69   41   73 1
    70   41   74 1
    71   42   43 1
    72   42   75 1
    73   42   76 1
    74   43   44 2
    75   43   45 am
    76   45   46 1
    77   45   77 1
    78   46   47 1
    79   46   78 1
    80   46   79 1
    81   47   48 1
    82   47   80 1
    83   47   81 1
    84   48   82 1
@<TRIPOS>SUBSTRUCTURE
     1 COA         1 GROUP   0 A     ****
@<TRIPOS>MOLECULE
[5-(6-amino-1,2-dihydropurin-2-ylium-9-yl)-4-hydroxy-2-[[[[3-hydroxy-2,2-dimethyl-4-oxo-4-[[3-oxo-3-(2-sulfanylethylamino)propyl]amino]butoxy]-oxido-phosphoryl]oxy-oxido-phosphoryl]oxymethyl]tetrahydrofuran-3-yl] hydrogen phosphate
   82    84     1     0     0
SMALL
USER_CHARGES

@<TRIPOS>ATOM
      1 N1A        88.6040  -84.6940  -15.4010 N.pl3     1 COA        -0.6324
      2 C2A        88.5170  -85.3620  -16.6140 C.cat     1 COA         0.2517
      3 N3A        88.4530  -84.8110  -17.8270 N.ar      1 COA        -0.5143
      4 C4A        88.4890  -83.4640  -17.7910 C.ar      1 COA         0.5720
      5 C5A        88.5780  -82.6230  -16.6440 C.ar      1 COA        -0.1555
      6 C6A        88.6370  -83.3150  -15.3450 C.ar      1 COA         0.4545
      7 N6A        88.7190  -82.6940  -14.2090 N.pl3     1 COA        -0.8519
      8 N7A        88.5930  -81.3110  -16.9840 N.ar      1 COA        -0.5652
      9 C8A        88.5140  -81.2930  -18.3130 C.ar      1 COA         0.6256
     10 N9A        88.4440  -82.5690  -18.8600 N.pl3     1 COA        -0.5776
     11 C1B        88.2830  -82.8930  -20.3050 C.3       1 COA         0.3743
     12 C2B        89.1690  -84.0030  -20.8100 C.3       1 COA         0.0819
     13 O2B        90.4930  -83.5370  -21.0680 O.3       1 COA        -0.5337
     14 C3B        88.4470  -84.3520  -22.1030 C.3       1 COA         0.2167
     15 O3B        88.5340  -83.3380  -23.0200 O.3       1 COA        -0.5526
     16 P3B        88.5670  -83.7630  -24.6320 P.3       1 COA         1.4305
     17 O7A        89.7760  -84.7730  -24.8120 O.2       1 COA        -0.8287
     18 O8A        88.8680  -82.4540  -25.4620 O.3       1 COA        -0.8287
     19 O9A        87.1870  -84.4450  -25.0050 O.3       1 COA        -0.7930
     20 C4B        86.9970  -84.4910  -21.5560 C.3       1 COA         0.0979
     21 O4B        86.9570  -83.4610  -20.4760 O.3       1 COA        -0.3941
     22 C5B        86.5780  -85.7930  -20.9340 C.3       1 COA         0.1698
     23 O5B        86.6630  -86.7650  -22.0150 O.3       1 COA        -0.5753
     24 P1A        85.5120  -87.8990  -22.1320 P.3       1 COA         1.6113
     25 O1A        85.9730  -88.8420  -23.2310 O.2       1 COA        -0.8897
     26 O2A        84.1350  -87.3250  -22.2760 O.3       1 COA        -0.8897
     27 O3A        85.5440  -88.6720  -20.8060 O.3       1 COA        -0.8194
     28 P2A        86.5260  -89.8380  -20.2320 P.3       1 COA         1.5890
     29 O4A        85.9410  -91.2220  -20.3870 O.2       1 COA        -0.8663
     30 O5A        87.9130  -89.7660  -20.8150 O.3       1 COA        -0.8663
     31 O6A        86.6310  -89.4110  -18.6740 O.3       1 COA        -0.5925
     32 CBP        85.9600  -88.6360  -16.5360 C.3       1 COA        -0.0967
     33 CCP        85.5210  -89.4080  -17.8120 C.3       1 COA         0.1965
     34 CDP        87.4920  -88.7900  -16.2100 C.3       1 COA        -0.0906
     35 CEP        85.6020  -87.2100  -16.9500 C.3       1 COA        -0.0906
     36 CAP        85.1850  -89.1370  -15.2540 C.3       1 COA         0.0974
     37 OAP        85.5020  -88.2660  -14.1280 O.3       1 COA        -0.5663
     38 C9P        83.6680  -89.1660  -15.4160 C.2       1 COA         0.6324
     39 O9P        83.0890  -90.0690  -16.2240 O.2       1 COA        -0.6495
     40 N8P        82.9960  -88.2770  -14.7190 N.am      1 COA        -0.5798
     41 C7P        81.5360  -88.1930  -14.7460 C.3       1 COA         0.1128
     42 C6P        81.0500  -88.2840  -13.2980 C.3       1 COA        -0.1818
     43 C5P        81.4830  -89.5720  -12.6330 C.2       1 COA         0.6664
     44 O5P        81.5080  -90.7220  -13.2480 O.2       1 COA        -0.6131
     45 N4P        81.8280  -89.4210  -11.3700 N.am      1 COA        -0.5890
     46 C3P        82.3050  -90.5540  -10.4610 C.3       1 COA         0.0964
     47 C2P        81.0660  -91.3020  -10.0080 C.3       1 COA        -0.0202
     48 S1P        81.4370  -92.6410   -8.8190 S.3       1 COA        -0.3956
     49 H2A        88.4990  -86.4230  -16.5720 H         1 COA         0.2112
     50 H61A       88.7598  -83.2668  -13.2708 H         1 COA         0.4679
     51 H62A       88.7477  -81.5947  -14.1840 H         1 COA         0.4679
     52 H8A        88.5050  -80.4030  -18.8910 H         1 COA         0.2334
     53 H1B        88.4770  -81.9515  -20.8397 H         1 COA         0.1052
     54 H2B        89.3598  -84.8274  -20.1072 H         1 COA         0.0537
     55 HO2A       91.1454  -83.2437  -20.2324 H         1 COA         0.3663
     56 H3B        88.8713  -85.1623  -22.7140 H         1 COA         0.0848
     57 HOA9       86.8712  -85.3646  -24.4906 H         1 COA         0.4302
     58 H4B        86.2834  -84.3952  -22.3877 H         1 COA         0.1175
     59 H51A       87.2605  -86.0410  -20.1077 H         1 COA         0.0473
     60 H52A       85.5523  -85.7014  -20.5474 H         1 COA         0.0473
     61 H121       84.6753  -88.9064  -18.3050 H         1 COA         0.0495
     62 H122       85.2421  -90.4441  -17.5697 H         1 COA         0.0495
     63 H131       88.0860  -88.4540  -17.0727 H         1 COA         0.0369
     64 H132       87.7175  -89.8456  -15.9983 H         1 COA         0.0369
     65 H133       87.7432  -88.1780  -15.3311 H         1 COA         0.0369
     66 H141       86.1780  -86.9326  -17.8451 H         1 COA         0.0369
     67 H142       85.8437  -86.5184  -16.1295 H         1 COA         0.0369
     68 H143       84.5265  -87.1522  -17.1735 H         1 COA         0.0369
     69 H10        85.5087  -90.1600  -15.0118 H         1 COA         0.1135
     70 HO1        86.5501  -88.1036  -13.8363 H         1 COA         0.4029
     71 HN8        83.5757  -87.5785  -14.0977 H         1 COA         0.3212
     72 H71        81.2320  -87.2366  -15.1965 H         1 COA         0.0651
     73 H72        81.1319  -89.0242  -15.3425 H         1 COA         0.0651
     74 H61        81.4621  -87.4441  -12.7195 H         1 COA         0.0742
     75 H62        79.9511  -88.2397  -13.2766 H         1 COA         0.0742
     76 HN4        81.7547  -88.3956  -10.9785 H         1 COA         0.3081
     77 H31        82.9779  -91.2173  -11.0242 H         1 COA         0.0623
     78 H32        82.8431  -90.1313   -9.5998 H         1 COA         0.0623
     79 H21        80.3736  -90.6017   -9.5181 H         1 COA         0.0793
     80 H22        80.5724  -91.7559  -10.8800 H         1 COA         0.0793
     81 HS1        80.6217  -93.2588   -8.4145 H         1 COA         0.2083
     82 H82        88.6480  -85.2639  -14.4612 H         1 COA         0.4544
@<TRIPOS>BOND
     1    1    2 ar
     2    1    6 ar
     3    1   82 1
     4    2    3 ar
     5    2   49 1
     6    3    4 ar
     7    4    5 ar
     8    4   10 ar
     9    5    6 ar
    10    5    8 ar
    11    6    7 1
    12    7   50 1
    13    7   51 1
    14    8    9 ar
    15    9   10 ar
    16    9   52 1
    17   10   11 1
    18   11   12 1
    19   11   21 1
    20   11   53 1
    21   12   13 1
    22   12   14 1
    23   12   54 1
    24   13   55 1
    25   14   15 1
    26   14   20 1
    27   14   56 1
    28   15   16 1
    29   16   17 2
    30   16   18 1
    31   16   19 1
    32   19   57 1
    33   20   21 1
    34   20   22 1
    35   20   58 1
    36   22   23 1
    37   22   59 1
    38   22   60 1
    39   23   24 1
    40   24   25 2
    41   24   26 1
    42   24   27 1
    43   27   28 1
    44   28   29 2
    45   28   30 1
    46   28   31 1
    47   31   33 1
    48   32   33 1
    49   32   34 1
    50   32   35 1
    51   32   36 1
    52   33   61 1
    53   33   62 1
    54   34   63 1
    55   34   64 1
    56   34   65 1
    57   35   66 1
    58   35   67 1
    59   35   68 1
    60   36   37 1
    61   36   38 1
    62   36   69 1
    63   37   70 1
    64   38   39 2
    65   38   40 am
    66   40   41 1
    67   40   71 1
    68   41   42 1
    69   41   72 1
    70   41   73 1
    71   42   43 1
    72   42   74 1
    73   42   75 1
    74   43   44 2
    75   43   45 am
    76   45   46 1
    77   45   76 1
    78   46   47 1
    79   46   77 1
    80   46   78 1
    81   47   48 1
    82   47   79 1
    83   47   80 1
    84   48   81 1
@<TRIPOS>SUBSTRUCTURE
     1 COA         1 GROUP   0 A     ****
@<TRIPOS>MOLECULE
[5-(6-amino-1,2-dihydropurin-2-ylium-9-yl)-4-hydroxy-2-[[[hydroxy-[3-hydroxy-2,2-dimethyl-4-oxo-4-[[3-oxo-3-(2-sulfanylethylamino)propyl]amino]butoxy]phosphoryl]oxy-oxido-phosphoryl]oxymethyl]tetrahydrofuran-3-yl] hydrogen phosphate
   83    85     1     0     0
SMALL
USER_CHARGES

@<TRIPOS>ATOM
      1 N1A        88.6040  -84.6940  -15.4010 N.pl3     1 COA        -0.6324
      2 C2A        88.5170  -85.3620  -16.6140 C.cat     1 COA         0.2708
      3 N3A        88.4530  -84.8110  -17.8270 N.ar      1 COA        -0.5163
      4 C4A        88.4890  -83.4640  -17.7910 C.ar      1 COA         0.5818
      5 C5A        88.5780  -82.6230  -16.6440 C.ar      1 COA        -0.1682
      6 C6A        88.6370  -83.3150  -15.3450 C.ar      1 COA         0.4742
      7 N6A        88.7190  -82.6940  -14.2090 N.pl3     1 COA        -0.8372
      8 N7A        88.5930  -81.3110  -16.9840 N.ar      1 COA        -0.5429
      9 C8A        88.5140  -81.2930  -18.3130 C.ar      1 COA         0.6054
     10 N9A        88.4440  -82.5690  -18.8600 N.pl3     1 COA        -0.5784
     11 C1B        88.2830  -82.8930  -20.3050 C.3       1 COA         0.3674
     12 C2B        89.1690  -84.0030  -20.8100 C.3       1 COA         0.0865
     13 O2B        90.4930  -83.5370  -21.0680 O.3       1 COA        -0.5320
     14 C3B        88.4470  -84.3520  -22.1030 C.3       1 COA         0.2225
     15 O3B        88.5340  -83.3380  -23.0200 O.3       1 COA        -0.5513
     16 P3B        88.5670  -83.7630  -24.6320 P.3       1 COA         1.4256
     17 O7A        89.7760  -84.7730  -24.8120 O.2       1 COA        -0.8204
     18 O8A        88.8680  -82.4540  -25.4620 O.3       1 COA        -0.8204
     19 O9A        87.1870  -84.4450  -25.0050 O.3       1 COA        -0.7828
     20 C4B        86.9970  -84.4910  -21.5560 C.3       1 COA         0.0936
     21 O4B        86.9570  -83.4610  -20.4760 O.3       1 COA        -0.3995
     22 C5B        86.5780  -85.7930  -20.9340 C.3       1 COA         0.1664
     23 O5B        86.6630  -86.7650  -22.0150 O.3       1 COA        -0.5749
     24 P1A        85.5120  -87.8990  -22.1320 P.3       1 COA         1.5766
     25 O1A        85.9730  -88.8420  -23.2310 O.2       1 COA        -0.8425
     26 O2A        84.1350  -87.3250  -22.2760 O.3       1 COA        -0.8425
     27 O3A        85.5440  -88.6720  -20.8060 O.3       1 COA        -0.8012
     28 P2A        86.5260  -89.8380  -20.2320 P.3       1 COA         1.7939
     29 O4A        85.9410  -91.2220  -20.3870 O.2       1 COA        -0.8620
     30 O5A        87.9130  -89.7660  -20.8150 O.3       1 COA        -0.8019
     31 O6A        86.6310  -89.4110  -18.6740 O.3       1 COA        -0.5899
     32 CBP        85.9600  -88.6360  -16.5360 C.3       1 COA        -0.0464
     33 CCP        85.5210  -89.4080  -17.8120 C.3       1 COA         0.1908
     34 CDP        87.4920  -88.7900  -16.2100 C.3       1 COA        -0.0976
     35 CEP        85.6020  -87.2100  -16.9500 C.3       1 COA        -0.0976
     36 CAP        85.1850  -89.1370  -15.2540 C.3       1 COA         0.0940
     37 OAP        85.5020  -88.2660  -14.1280 O.3       1 COA        -0.5879
     38 C9P        83.6680  -89.1660  -15.4160 C.2       1 COA         0.6237
     39 O9P        83.0890  -90.0690  -16.2240 O.2       1 COA        -0.6360
     40 N8P        82.9960  -88.2770  -14.7190 N.am      1 COA        -0.5698
     41 C7P        81.5360  -88.1930  -14.7460 C.3       1 COA         0.1114
     42 C6P        81.0500  -88.2840  -13.2980 C.3       1 COA        -0.1819
     43 C5P        81.4830  -89.5720  -12.6330 C.2       1 COA         0.6630
     44 O5P        81.5080  -90.7220  -13.2480 O.2       1 COA        -0.6103
     45 N4P        81.8280  -89.4210  -11.3700 N.am      1 COA        -0.5862
     46 C3P        82.3050  -90.5540  -10.4610 C.3       1 COA         0.0941
     47 C2P        81.0660  -91.3020  -10.0080 C.3       1 COA        -0.0247
     48 S1P        81.4370  -92.6410   -8.8190 S.3       1 COA        -0.3862
     49 H2A        88.4990  -86.4230  -16.5720 H         1 COA         0.2221
     50 H61A       88.7598  -83.2668  -13.2708 H         1 COA         0.4738
     51 H62A       88.7477  -81.5947  -14.1840 H         1 COA         0.4738
     52 H8A        88.5050  -80.4030  -18.8910 H         1 COA         0.1769
     53 H1B        88.4770  -81.9515  -20.8397 H         1 COA         0.1194
     54 H2B        89.3598  -84.8274  -20.1072 H         1 COA         0.0442
     55 HO2A       91.1454  -83.2437  -20.2324 H         1 COA         0.3729
     56 H3B        88.8713  -85.1623  -22.7140 H         1 COA         0.0896
     57 HOA9       86.8712  -85.3646  -24.4906 H         1 COA         0.4293
     58 H4B        86.2834  -84.3952  -22.3877 H         1 COA         0.1394
     59 H51A       87.2605  -86.0410  -20.1077 H         1 COA         0.0428
     60 H52A       85.5523  -85.7014  -20.5474 H         1 COA         0.0428
     61 HOA5       88.0786  -90.0175  -21.8730 H         1 COA         0.4775
     62 H121       84.6753  -88.9064  -18.3050 H         1 COA         0.0567
     63 H122       85.2421  -90.4441  -17.5697 H         1 COA         0.0567
     64 H131       88.0860  -88.4540  -17.0727 H         1 COA         0.0450
     65 H132       87.7175  -89.8456  -15.9983 H         1 COA         0.0450
     66 H133       87.7432  -88.1780  -15.3311 H         1 COA         0.0450
     67 H141       86.1780  -86.9326  -17.8451 H         1 COA         0.0450
     68 H142       85.8437  -86.5184  -16.1295 H         1 COA         0.0450
     69 H143       84.5265  -87.1522  -17.1735 H         1 COA         0.0450
     70 H10        85.5087  -90.1600  -15.0118 H         1 COA         0.0825
     71 HO1        86.5501  -88.1036  -13.8363 H         1 COA         0.4141
     72 HN8        83.5757  -87.5785  -14.0977 H         1 COA         0.3248
     73 H71        81.2320  -87.2366  -15.1965 H         1 COA         0.0696
     74 H72        81.1319  -89.0242  -15.3425 H         1 COA         0.0696
     75 H61        81.4621  -87.4441  -12.7195 H         1 COA         0.0754
     76 H62        79.9511  -88.2397  -13.2766 H         1 COA         0.0754
     77 HN4        81.7547  -88.3956  -10.9785 H         1 COA         0.3127
     78 H31        82.9779  -91.2173  -11.0242 H         1 COA         0.0671
     79 H32        82.8431  -90.1313   -9.5998 H         1 COA         0.0671
     80 H21        80.3736  -90.6017   -9.5181 H         1 COA         0.0827
     81 H22        80.5724  -91.7559  -10.8800 H         1 COA         0.0827
     82 HS1        80.6217  -93.2588   -8.4145 H         1 COA         0.2070
     83 H83        88.6480  -85.2639  -14.4612 H         1 COA         0.4613
@<TRIPOS>BOND
     1    1    2 ar
     2    1    6 ar
     3    1   83 1
     4    2    3 ar
     5    2   49 1
     6    3    4 ar
     7    4    5 ar
     8    4   10 ar
     9    5    6 ar
    10    5    8 ar
    11    6    7 1
    12    7   50 1
    13    7   51 1
    14    8    9 ar
    15    9   10 ar
    16    9   52 1
    17   10   11 1
    18   11   12 1
    19   11   21 1
    20   11   53 1
    21   12   13 1
    22   12   14 1
    23   12   54 1
    24   13   55 1
    25   14   15 1
    26   14   20 1
    27   14   56 1
    28   15   16 1
    29   16   17 2
    30   16   18 1
    31   16   19 1
    32   19   57 1
    33   20   21 1
    34   20   22 1
    35   20   58 1
    36   22   23 1
    37   22   59 1
    38   22   60 1
    39   23   24 1
    40   24   25 2
    41   24   26 1
    42   24   27 1
    43   27   28 1
    44   28   29 2
    45   28   30 1
    46   28   31 1
    47   30   61 1
    48   31   33 1
    49   32   33 1
    50   32   34 1
    51   32   35 1
    52   32   36 1
    53   33   62 1
    54   33   63 1
    55   34   64 1
    56   34   65 1
    57   34   66 1
    58   35   67 1
    59   35   68 1
    60   35   69 1
    61   36   37 1
    62   36   38 1
    63   36   70 1
    64   37   71 1
    65   38   39 2
    66   38   40 am
    67   40   41 1
    68   40   72 1
    69   41   42 1
    70   41   73 1
    71   41   74 1
    72   42   43 1
    73   42   75 1
    74   42   76 1
    75   43   44 2
    76   43   45 am
    77   45   46 1
    78   45   77 1
    79   46   47 1
    80   46   78 1
    81   46   79 1
    82   47   48 1
    83   47   80 1
    84   47   81 1
    85   48   82 1
@<TRIPOS>SUBSTRUCTURE
     1 COA         1 GROUP   0 A     ****
@<TRIPOS>MOLECULE
[[5-(6-aminopurin-9-yl)-4-hydroxy-3-phosphonooxy-tetrahydrofuran-2-yl]methoxy-oxido-phosphoryl] [3-hydroxy-2,2-dimethyl-4-oxo-4-[[3-oxo-3-(2-sulfanylethylamino)propyl]amino]butyl] phosphate
   82    84     1     0     0
SMALL
USER_CHARGES

@<TRIPOS>ATOM
      1 N1A        88.6040  -84.6940  -15.4010 N.ar      1 COA        -0.8053
      2 C2A        88.5170  -85.3620  -16.6140 C.ar      1 COA         0.6581
      3 N3A        88.4530  -84.8110  -17.8270 N.ar      1 COA        -0.7060
      4 C4A        88.4890  -83.4640  -17.7910 C.ar      1 COA         0.5814
      5 C5A        88.5780  -82.6230  -16.6440 C.ar      1 COA        -0.2089
      6 C6A        88.6370  -83.3150  -15.3450 C.ar      1 COA         0.7186
      7 N6A        88.7190  -82.6940  -14.2090 N.pl3     1 COA        -0.9393
      8 N7A        88.5930  -81.3110  -16.9840 N.ar      1 COA        -0.5727
      9 C8A        88.5140  -81.2930  -18.3130 C.ar      1 COA         0.5683
     10 N9A        88.4440  -82.5690  -18.8600 N.pl3     1 COA        -0.6806
     11 C1B        88.2830  -82.8930  -20.3050 C.3       1 COA         0.4402
     12 C2B        89.1690  -84.0030  -20.8100 C.3       1 COA         0.0953
     13 O2B        90.4930  -83.5370  -21.0680 O.3       1 COA        -0.5788
     14 C3B        88.4470  -84.3520  -22.1030 C.3       1 COA         0.1412
     15 O3B        88.5340  -83.3380  -23.0200 O.3       1 COA        -0.5991
     16 P3B        88.5670  -83.7630  -24.6320 P.3       1 COA         1.6517
     17 O7A        89.7760  -84.7730  -24.8120 O.2       1 COA        -0.7897
     18 O8A        88.8680  -82.4540  -25.4620 O.3       1 COA        -0.7717
     19 O9A        87.1870  -84.4450  -25.0050 O.3       1 COA        -0.7717
     20 C4B        86.9970  -84.4910  -21.5560 C.3       1 COA         0.1012
     21 O4B        86.9570  -83.4610  -20.4760 O.3       1 COA        -0.4299
     22 C5B        86.5780  -85.7930  -20.9340 C.3       1 COA         0.1885
     23 O5B        86.6630  -86.7650  -22.0150 O.3       1 COA        -0.5922
     24 P1A        85.5120  -87.8990  -22.1320 P.3       1 COA         1.5980
     25 O1A        85.9730  -88.8420  -23.2310 O.2       1 COA        -0.8726
     26 O2A        84.1350  -87.3250  -22.2760 O.3       1 COA        -0.8726
     27 O3A        85.5440  -88.6720  -20.8060 O.3       1 COA        -0.8142
     28 P2A        86.5260  -89.8380  -20.2320 P.3       1 COA         1.5828
     29 O4A        85.9410  -91.2220  -20.3870 O.2       1 COA        -0.8678
     30 O5A        87.9130  -89.7660  -20.8150 O.3       1 COA        -0.8678
     31 O6A        86.6310  -89.4110  -18.6740 O.3       1 COA        -0.5989
     32 CBP        85.9600  -88.6360  -16.5360 C.3       1 COA        -0.0769
     33 CCP        85.5210  -89.4080  -17.8120 C.3       1 COA         0.1829
     34 CDP        87.4920  -88.7900  -16.2100 C.3       1 COA        -0.0831
     35 CEP        85.6020  -87.2100  -16.9500 C.3       1 COA        -0.0831
     36 CAP        85.1850  -89.1370  -15.2540 C.3       1 COA         0.0867
     37 OAP        85.5020  -88.2660  -14.1280 O.3       1 COA        -0.6121
     38 C9P        83.6680  -89.1660  -15.4160 C.2       1 COA         0.6384
     39 O9P        83.0890  -90.0690  -16.2240 O.2       1 COA        -0.6804
     40 N8P        82.9960  -88.2770  -14.7190 N.am      1 COA        -0.5488
     41 C7P        81.5360  -88.1930  -14.7460 C.3       1 COA         0.1128
     42 C6P        81.0500  -88.2840  -13.2980 C.3       1 COA        -0.1753
     43 C5P        81.4830  -89.5720  -12.6330 C.2       1 COA         0.6703
     44 O5P        81.5080  -90.7220  -13.2480 O.2       1 COA        -0.6152
     45 N4P        81.8280  -89.4210  -11.3700 N.am      1 COA        -0.5884
     46 C3P        82.3050  -90.5540  -10.4610 C.3       1 COA         0.0924
     47 C2P        81.0660  -91.3020  -10.0080 C.3       1 COA        -0.0159
     48 S1P        81.4370  -92.6410   -8.8190 S.3       1 COA        -0.4000
     49 H2A        88.4990  -86.4230  -16.5720 H         1 COA         0.0381
     50 H61A       88.7598  -83.2668  -13.2708 H         1 COA         0.4204
     51 H62A       88.7477  -81.5947  -14.1840 H         1 COA         0.4204
     52 H8A        88.5050  -80.4030  -18.8910 H         1 COA         0.1096
     53 H1B        88.4770  -81.9515  -20.8397 H         1 COA         0.1032
     54 H2B        89.3598  -84.8274  -20.1072 H         1 COA         0.0837
     55 HO2A       91.1454  -83.2437  -20.2324 H         1 COA         0.4098
     56 H3B        88.8713  -85.1623  -22.7140 H         1 COA         0.1130
     57 HOA8       89.7991  -81.8946  -25.2883 H         1 COA         0.4855
     58 HOA9       86.8712  -85.3646  -24.4906 H         1 COA         0.4855
     59 H4B        86.2834  -84.3952  -22.3877 H         1 COA         0.0898
     60 H51A       87.2605  -86.0410  -20.1077 H         1 COA         0.0431
     61 H52A       85.5523  -85.7014  -20.5474 H         1 COA         0.0431
     62 H121       84.6753  -88.9064  -18.3050 H         1 COA         0.0378
     63 H122       85.2421  -90.4441  -17.5697 H         1 COA         0.0378
     64 H131       88.0860  -88.4540  -17.0727 H         1 COA         0.0342
     65 H132       87.7175  -89.8456  -15.9983 H         1 COA         0.0342
     66 H133       87.7432  -88.1780  -15.3311 H         1 COA         0.0342
     67 H141       86.1780  -86.9326  -17.8451 H         1 COA         0.0342
     68 H142       85.8437  -86.5184  -16.1295 H         1 COA         0.0342
     69 H143       84.5265  -87.1522  -17.1735 H         1 COA         0.0342
     70 H10        85.5087  -90.1600  -15.0118 H         1 COA         0.1214
     71 HO1        86.5501  -88.1036  -13.8363 H         1 COA         0.4077
     72 HN8        83.5757  -87.5785  -14.0977 H         1 COA         0.3654
     73 H71        81.2320  -87.2366  -15.1965 H         1 COA         0.0728
     74 H72        81.1319  -89.0242  -15.3425 H         1 COA         0.0728
     75 H61        81.4621  -87.4441  -12.7195 H         1 COA         0.0764
     76 H62        79.9511  -88.2397  -13.2766 H         1 COA         0.0764
     77 HN4        81.7547  -88.3956  -10.9785 H         1 COA         0.3090
     78 H31        82.9779  -91.2173  -11.0242 H         1 COA         0.0606
     79 H32        82.8431  -90.1313   -9.5998 H         1 COA         0.0606
     80 H21        80.3736  -90.6017   -9.5181 H         1 COA         0.0651
     81 H22        80.5724  -91.7559  -10.8800 H         1 COA         0.0651
     82 HS1        80.6217  -93.2588   -8.4145 H         1 COA         0.2309
@<TRIPOS>BOND
     1    1    2 ar
     2    1    6 ar
     3    2    3 ar
     4    2   49 1
     5    3    4 ar
     6    4    5 ar
     7    4   10 ar
     8    5    6 ar
     9    5    8 ar
    10    6    7 1
    11    7   50 1
    12    7   51 1
    13    8    9 ar
    14    9   10 ar
    15    9   52 1
    16   10   11 1
    17   11   12 1
    18   11   21 1
    19   11   53 1
    20   12   13 1
    21   12   14 1
    22   12   54 1
    23   13   55 1
    24   14   15 1
    25   14   20 1
    26   14   56 1
    27   15   16 1
    28   16   17 2
    29   16   18 1
    30   16   19 1
    31   18   57 1
    32   19   58 1
    33   20   21 1
    34   20   22 1
    35   20   59 1
    36   22   23 1
    37   22   60 1
    38   22   61 1
    39   23   24 1
    40   24   25 2
    41   24   26 1
    42   24   27 1
    43   27   28 1
    44   28   29 2
    45   28   30 1
    46   28   31 1
    47   31   33 1
    48   32   33 1
    49   32   34 1
    50   32   35 1
    51   32   36 1
    52   33   62 1
    53   33   63 1
    54   34   64 1
    55   34   65 1
    56   34   66 1
    57   35   67 1
    58   35   68 1
    59   35   69 1
    60   36   37 1
    61   36   38 1
    62   36   70 1
    63   37   71 1
    64   38   39 2
    65   38   40 am
    66   40   41 1
    67   40   72 1
    68   41   42 1
    69   41   73 1
    70   41   74 1
    71   42   43 1
    72   42   75 1
    73   42   76 1
    74   43   44 2
    75   43   45 am
    76   45   46 1
    77   45   77 1
    78   46   47 1
    79   46   78 1
    80   46   79 1
    81   47   48 1
    82   47   80 1
    83   47   81 1
    84   48   82 1
@<TRIPOS>SUBSTRUCTURE
     1 COA         1 GROUP   0 A     ****
@<TRIPOS>MOLECULE
[5-(6-amino-1,2-dihydropurin-2-ylium-9-yl)-4-hydroxy-2-[[hydroxy-[[3-hydroxy-2,2-dimethyl-4-oxo-4-[[3-oxo-3-(2-sulfanylethylamino)propyl]amino]butoxy]-oxido-phosphoryl]oxy-phosphoryl]oxymethyl]tetrahydrofuran-3-yl] hydrogen phosphate
   83    85     1     0     0
SMALL
USER_CHARGES

@<TRIPOS>ATOM
      1 N1A        88.6040  -84.6940  -15.4010 N.pl3     1 COA        -0.6304
      2 C2A        88.5170  -85.3620  -16.6140 C.cat     1 COA         0.2740
      3 N3A        88.4530  -84.8110  -17.8270 N.ar      1 COA        -0.5156
      4 C4A        88.4890  -83.4640  -17.7910 C.ar      1 COA         0.5870
      5 C5A        88.5780  -82.6230  -16.6440 C.ar      1 COA        -0.1664
      6 C6A        88.6370  -83.3150  -15.3450 C.ar      1 COA         0.4768
      7 N6A        88.7190  -82.6940  -14.2090 N.pl3     1 COA        -0.8352
      8 N7A        88.5930  -81.3110  -16.9840 N.ar      1 COA        -0.5365
      9 C8A        88.5140  -81.2930  -18.3130 C.ar      1 COA         0.5987
     10 N9A        88.4440  -82.5690  -18.8600 N.pl3     1 COA        -0.5808
     11 C1B        88.2830  -82.8930  -20.3050 C.3       1 COA         0.3697
     12 C2B        89.1690  -84.0030  -20.8100 C.3       1 COA         0.0720
     13 O2B        90.4930  -83.5370  -21.0680 O.3       1 COA        -0.5246
     14 C3B        88.4470  -84.3520  -22.1030 C.3       1 COA         0.2204
     15 O3B        88.5340  -83.3380  -23.0200 O.3       1 COA        -0.5461
     16 P3B        88.5670  -83.7630  -24.6320 P.3       1 COA         1.4331
     17 O7A        89.7760  -84.7730  -24.8120 O.2       1 COA        -0.8208
     18 O8A        88.8680  -82.4540  -25.4620 O.3       1 COA        -0.8208
     19 O9A        87.1870  -84.4450  -25.0050 O.3       1 COA        -0.7766
     20 C4B        86.9970  -84.4910  -21.5560 C.3       1 COA         0.1100
     21 O4B        86.9570  -83.4610  -20.4760 O.3       1 COA        -0.4013
     22 C5B        86.5780  -85.7930  -20.9340 C.3       1 COA         0.1458
     23 O5B        86.6630  -86.7650  -22.0150 O.3       1 COA        -0.5874
     24 P1A        85.5120  -87.8990  -22.1320 P.3       1 COA         1.7916
     25 O1A        85.9730  -88.8420  -23.2310 O.2       1 COA        -0.8745
     26 O2A        84.1350  -87.3250  -22.2760 O.3       1 COA        -0.7949
     27 O3A        85.5440  -88.6720  -20.8060 O.3       1 COA        -0.8013
     28 P2A        86.5260  -89.8380  -20.2320 P.3       1 COA         1.5677
     29 O4A        85.9410  -91.2220  -20.3870 O.2       1 COA        -0.8227
     30 O5A        87.9130  -89.7660  -20.8150 O.3       1 COA        -0.8227
     31 O6A        86.6310  -89.4110  -18.6740 O.3       1 COA        -0.5895
     32 CBP        85.9600  -88.6360  -16.5360 C.3       1 COA        -0.0712
     33 CCP        85.5210  -89.4080  -17.8120 C.3       1 COA         0.1814
     34 CDP        87.4920  -88.7900  -16.2100 C.3       1 COA        -0.0826
     35 CEP        85.6020  -87.2100  -16.9500 C.3       1 COA        -0.0826
     36 CAP        85.1850  -89.1370  -15.2540 C.3       1 COA         0.0915
     37 OAP        85.5020  -88.2660  -14.1280 O.3       1 COA        -0.6137
     38 C9P        83.6680  -89.1660  -15.4160 C.2       1 COA         0.6216
     39 O9P        83.0890  -90.0690  -16.2240 O.2       1 COA        -0.6698
     40 N8P        82.9960  -88.2770  -14.7190 N.am      1 COA        -0.5511
     41 C7P        81.5360  -88.1930  -14.7460 C.3       1 COA         0.1092
     42 C6P        81.0500  -88.2840  -13.2980 C.3       1 COA        -0.1768
     43 C5P        81.4830  -89.5720  -12.6330 C.2       1 COA         0.6666
     44 O5P        81.5080  -90.7220  -13.2480 O.2       1 COA        -0.6042
     45 N4P        81.8280  -89.4210  -11.3700 N.am      1 COA        -0.5967
     46 C3P        82.3050  -90.5540  -10.4610 C.3       1 COA         0.0971
     47 C2P        81.0660  -91.3020  -10.0080 C.3       1 COA        -0.0160
     48 S1P        81.4370  -92.6410   -8.8190 S.3       1 COA        -0.4009
     49 H2A        88.4990  -86.4230  -16.5720 H         1 COA         0.2253
     50 H61A       88.7598  -83.2668  -13.2708 H         1 COA         0.4754
     51 H62A       88.7477  -81.5947  -14.1840 H         1 COA         0.4754
     52 H8A        88.5050  -80.4030  -18.8910 H         1 COA         0.1679
     53 H1B        88.4770  -81.9515  -20.8397 H         1 COA         0.1278
     54 H2B        89.3598  -84.8274  -20.1072 H         1 COA         0.0418
     55 HO2A       91.1454  -83.2437  -20.2324 H         1 COA         0.3755
     56 H3B        88.8713  -85.1623  -22.7140 H         1 COA         0.1000
     57 HOA9       86.8712  -85.3646  -24.4906 H         1 COA         0.4290
     58 H4B        86.2834  -84.3952  -22.3877 H         1 COA         0.1274
     59 H51A       87.2605  -86.0410  -20.1077 H         1 COA         0.0541
     60 H52A       85.5523  -85.7014  -20.5474 H         1 COA         0.0541
     61 HOA2       83.8791  -86.7250  -23.1617 H         1 COA         0.4801
     62 H121       84.6753  -88.9064  -18.3050 H         1 COA         0.0408
     63 H122       85.2421  -90.4441  -17.5697 H         1 COA         0.0408
     64 H131       88.0860  -88.4540  -17.0727 H         1 COA         0.0390
     65 H132       87.7175  -89.8456  -15.9983 H         1 COA         0.0390
     66 H133       87.7432  -88.1780  -15.3311 H         1 COA         0.0390
     67 H141       86.1780  -86.9326  -17.8451 H         1 COA         0.0390
     68 H142       85.8437  -86.5184  -16.1295 H         1 COA         0.0390
     69 H143       84.5265  -87.1522  -17.1735 H         1 COA         0.0390
     70 H10        85.5087  -90.1600  -15.0118 H         1 COA         0.0843
     71 HO1        86.5501  -88.1036  -13.8363 H         1 COA         0.4219
     72 HN8        83.5757  -87.5785  -14.0977 H         1 COA         0.3746
     73 H71        81.2320  -87.2366  -15.1965 H         1 COA         0.0751
     74 H72        81.1319  -89.0242  -15.3425 H         1 COA         0.0751
     75 H61        81.4621  -87.4441  -12.7195 H         1 COA         0.0728
     76 H62        79.9511  -88.2397  -13.2766 H         1 COA         0.0728
     77 HN4        81.7547  -88.3956  -10.9785 H         1 COA         0.3092
     78 H31        82.9779  -91.2173  -11.0242 H         1 COA         0.0645
     79 H32        82.8431  -90.1313   -9.5998 H         1 COA         0.0645
     80 H21        80.3736  -90.6017   -9.5181 H         1 COA         0.0812
     81 H22        80.5724  -91.7559  -10.8800 H         1 COA         0.0812
     82 HS1        80.6217  -93.2588   -8.4145 H         1 COA         0.2104
     83 H83        88.6480  -85.2639  -14.4612 H         1 COA         0.4629
@<TRIPOS>BOND
     1    1    2 ar
     2    1    6 ar
     3    1   83 1
     4    2    3 ar
     5    2   49 1
     6    3    4 ar
     7    4    5 ar
     8    4   10 ar
     9    5    6 ar
    10    5    8 ar
    11    6    7 1
    12    7   50 1
    13    7   51 1
    14    8    9 ar
    15    9   10 ar
    16    9   52 1
    17   10   11 1
    18   11   12 1
    19   11   21 1
    20   11   53 1
    21   12   13 1
    22   12   14 1
    23   12   54 1
    24   13   55 1
    25   14   15 1
    26   14   20 1
    27   14   56 1
    28   15   16 1
    29   16   17 2
    30   16   18 1
    31   16   19 1
    32   19   57 1
    33   20   21 1
    34   20   22 1
    35   20   58 1
    36   22   23 1
    37   22   59 1
    38   22   60 1
    39   23   24 1
    40   24   25 2
    41   24   26 1
    42   24   27 1
    43   26   61 1
    44   27   28 1
    45   28   29 2
    46   28   30 1
    47   28   31 1
    48   31   33 1
    49   32   33 1
    50   32   34 1
    51   32   35 1
    52   32   36 1
    53   33   62 1
    54   33   63 1
    55   34   64 1
    56   34   65 1
    57   34   66 1
    58   35   67 1
    59   35   68 1
    60   35   69 1
    61   36   37 1
    62   36   38 1
    63   36   70 1
    64   37   71 1
    65   38   39 2
    66   38   40 am
    67   40   41 1
    68   40   72 1
    69   41   42 1
    70   41   73 1
    71   41   74 1
    72   42   43 1
    73   42   75 1
    74   42   76 1
    75   43   44 2
    76   43   45 am
    77   45   46 1
    78   45   77 1
    79   46   47 1
    80   46   78 1
    81   46   79 1
    82   47   48 1
    83   47   80 1
    84   47   81 1
    85   48   82 1
@<TRIPOS>SUBSTRUCTURE
     1 COA         1 GROUP   0 A     ****
@<TRIPOS>MOLECULE
[5-(6-amino-7,8-dihydropurin-8-ylium-9-yl)-4-hydroxy-2-[[[[3-hydroxy-2,2-dimethyl-4-oxo-4-[[3-oxo-3-(2-sulfanylethylamino)propyl]amino]butoxy]-oxido-phosphoryl]oxy-oxido-phosphoryl]oxymethyl]tetrahydrofuran-3-yl] hydrogen phosphate
   82    84     1     0     0
SMALL
USER_CHARGES

@<TRIPOS>ATOM
      1 N1A        88.6040  -84.6940  -15.4010 N.ar      1 COA        -0.7648
      2 C2A        88.5170  -85.3620  -16.6140 C.ar      1 COA         0.6459
      3 N3A        88.4530  -84.8110  -17.8270 N.ar      1 COA        -0.6955
      4 C4A        88.4890  -83.4640  -17.7910 C.ar      1 COA         0.5882
      5 C5A        88.5780  -82.6230  -16.6440 C.ar      1 COA        -0.2354
      6 C6A        88.6370  -83.3150  -15.3450 C.ar      1 COA         0.6490
      7 N6A        88.7190  -82.6940  -14.2090 N.pl3     1 COA        -0.9176
      8 N7A        88.5930  -81.3110  -16.9840 N.pl3     1 COA        -0.6139
      9 C8A        88.5140  -81.2930  -18.3130 C.cat     1 COA         0.2426
     10 N9A        88.4440  -82.5690  -18.8600 N.pl3     1 COA        -0.6384
     11 C1B        88.2830  -82.8930  -20.3050 C.3       1 COA         0.3921
     12 C2B        89.1690  -84.0030  -20.8100 C.3       1 COA         0.0913
     13 O2B        90.4930  -83.5370  -21.0680 O.3       1 COA        -0.5511
     14 C3B        88.4470  -84.3520  -22.1030 C.3       1 COA         0.2126
     15 O3B        88.5340  -83.3380  -23.0200 O.3       1 COA        -0.5485
     16 P3B        88.5670  -83.7630  -24.6320 P.3       1 COA         1.4317
     17 O7A        89.7760  -84.7730  -24.8120 O.2       1 COA        -0.8303
     18 O8A        88.8680  -82.4540  -25.4620 O.3       1 COA        -0.8303
     19 O9A        87.1870  -84.4450  -25.0050 O.3       1 COA        -0.7866
     20 C4B        86.9970  -84.4910  -21.5560 C.3       1 COA         0.0989
     21 O4B        86.9570  -83.4610  -20.4760 O.3       1 COA        -0.3945
     22 C5B        86.5780  -85.7930  -20.9340 C.3       1 COA         0.1647
     23 O5B        86.6630  -86.7650  -22.0150 O.3       1 COA        -0.5946
     24 P1A        85.5120  -87.8990  -22.1320 P.3       1 COA         1.6635
     25 O1A        85.9730  -88.8420  -23.2310 O.2       1 COA        -0.6717
     26 O2A        84.1350  -87.3250  -22.2760 O.3       1 COA        -0.6717
     27 O3A        85.5440  -88.6720  -20.8060 O.3       1 COA        -0.7962
     28 P2A        86.5260  -89.8380  -20.2320 P.3       1 COA         1.5733
     29 O4A        85.9410  -91.2220  -20.3870 O.2       1 COA        -0.8277
     30 O5A        87.9130  -89.7660  -20.8150 O.3       1 COA        -0.8277
     31 O6A        86.6310  -89.4110  -18.6740 O.3       1 COA        -0.5927
     32 CBP        85.9600  -88.6360  -16.5360 C.3       1 COA        -0.0885
     33 CCP        85.5210  -89.4080  -17.8120 C.3       1 COA         0.1922
     34 CDP        87.4920  -88.7900  -16.2100 C.3       1 COA        -0.0942
     35 CEP        85.6020  -87.2100  -16.9500 C.3       1 COA        -0.0942
     36 CAP        85.1850  -89.1370  -15.2540 C.3       1 COA         0.1182
     37 OAP        85.5020  -88.2660  -14.1280 O.3       1 COA        -0.6023
     38 C9P        83.6680  -89.1660  -15.4160 C.2       1 COA         0.6449
     39 O9P        83.0890  -90.0690  -16.2240 O.2       1 COA        -0.6009
     40 N8P        82.9960  -88.2770  -14.7190 N.am      1 COA        -0.5941
     41 C7P        81.5360  -88.1930  -14.7460 C.3       1 COA         0.1115
     42 C6P        81.0500  -88.2840  -13.2980 C.3       1 COA        -0.1877
     43 C5P        81.4830  -89.5720  -12.6330 C.2       1 COA         0.6677
     44 O5P        81.5080  -90.7220  -13.2480 O.2       1 COA        -0.6133
     45 N4P        81.8280  -89.4210  -11.3700 N.am      1 COA        -0.5919
     46 C3P        82.3050  -90.5540  -10.4610 C.3       1 COA         0.0940
     47 C2P        81.0660  -91.3020  -10.0080 C.3       1 COA        -0.0194
     48 S1P        81.4370  -92.6410   -8.8190 S.3       1 COA        -0.3992
     49 H2A        88.4990  -86.4230  -16.5720 H         1 COA         0.0471
     50 H61A       88.7598  -83.2668  -13.2708 H         1 COA         0.3958
     51 H62A       88.7477  -81.5947  -14.1840 H         1 COA         0.3958
     52 H8A        88.5050  -80.4030  -18.8910 H         1 COA         0.2818
     53 H1B        88.4770  -81.9515  -20.8397 H         1 COA         0.1008
     54 H2B        89.3598  -84.8274  -20.1072 H         1 COA         0.0441
     55 HO2A       91.1454  -83.2437  -20.2324 H         1 COA         0.3843
     56 H3B        88.8713  -85.1623  -22.7140 H         1 COA         0.0744
     57 HOA9       86.8712  -85.3646  -24.4906 H         1 COA         0.4262
     58 H4B        86.2834  -84.3952  -22.3877 H         1 COA         0.1256
     59 H51A       87.2605  -86.0410  -20.1077 H         1 COA         0.0535
     60 H52A       85.5523  -85.7014  -20.5474 H         1 COA         0.0535
     61 H121       84.6753  -88.9064  -18.3050 H         1 COA         0.0376
     62 H122       85.2421  -90.4441  -17.5697 H         1 COA         0.0376
     63 H131       88.0860  -88.4540  -17.0727 H         1 COA         0.0434
     64 H132       87.7175  -89.8456  -15.9983 H         1 COA         0.0434
     65 H133       87.7432  -88.1780  -15.3311 H         1 COA         0.0434
     66 H141       86.1780  -86.9326  -17.8451 H         1 COA         0.0434
     67 H142       85.8437  -86.5184  -16.1295 H         1 COA         0.0434
     68 H143       84.5265  -87.1522  -17.1735 H         1 COA         0.0434
     69 H10        85.5087  -90.1600  -15.0118 H         1 COA         0.0436
     70 HO1        86.5501  -88.1036  -13.8363 H         1 COA         0.4603
     71 HN8        83.5757  -87.5785  -14.0977 H         1 COA         0.3070
     72 H71        81.2320  -87.2366  -15.1965 H         1 COA         0.0663
     73 H72        81.1319  -89.0242  -15.3425 H         1 COA         0.0663
     74 H61        81.4621  -87.4441  -12.7195 H         1 COA         0.0742
     75 H62        79.9511  -88.2397  -13.2766 H         1 COA         0.0742
     76 HN4        81.7547  -88.3956  -10.9785 H         1 COA         0.3125
     77 H31        82.9779  -91.2173  -11.0242 H         1 COA         0.0651
     78 H32        82.8431  -90.1313   -9.5998 H         1 COA         0.0651
     79 H21        80.3736  -90.6017   -9.5181 H         1 COA         0.0801
     80 H22        80.5724  -91.7559  -10.8800 H         1 COA         0.0801
     81 HS1        80.6217  -93.2588   -8.4145 H         1 COA         0.2155
     82 H82        88.6605  -80.5408  -16.2015 H         1 COA         0.4640
@<TRIPOS>BOND
     1    1    2 ar
     2    1    6 ar
     3    2    3 ar
     4    2   49 1
     5    3    4 ar
     6    4    5 ar
     7    4   10 ar
     8    5    6 ar
     9    5    8 ar
    10    6    7 1
    11    7   50 1
    12    7   51 1
    13    8    9 ar
    14    8   82 1
    15    9   10 ar
    16    9   52 1
    17   10   11 1
    18   11   12 1
    19   11   21 1
    20   11   53 1
    21   12   13 1
    22   12   14 1
    23   12   54 1
    24   13   55 1
    25   14   15 1
    26   14   20 1
    27   14   56 1
    28   15   16 1
    29   16   17 2
    30   16   18 1
    31   16   19 1
    32   19   57 1
    33   20   21 1
    34   20   22 1
    35   20   58 1
    36   22   23 1
    37   22   59 1
    38   22   60 1
    39   23   24 1
    40   24   25 2
    41   24   26 1
    42   24   27 1
    43   27   28 1
    44   28   29 2
    45   28   30 1
    46   28   31 1
    47   31   33 1
    48   32   33 1
    49   32   34 1
    50   32   35 1
    51   32   36 1
    52   33   61 1
    53   33   62 1
    54   34   63 1
    55   34   64 1
    56   34   65 1
    57   35   66 1
    58   35   67 1
    59   35   68 1
    60   36   37 1
    61   36   38 1
    62   36   69 1
    63   37   70 1
    64   38   39 2
    65   38   40 am
    66   40   41 1
    67   40   71 1
    68   41   42 1
    69   41   72 1
    70   41   73 1
    71   42   43 1
    72   42   74 1
    73   42   75 1
    74   43   44 2
    75   43   45 am
    76   45   46 1
    77   45   76 1
    78   46   47 1
    79   46   77 1
    80   46   78 1
    81   47   48 1
    82   47   79 1
    83   47   80 1
    84   48   81 1
@<TRIPOS>SUBSTRUCTURE
     1 COA         1 GROUP   0 A     ****
@<TRIPOS>MOLECULE
[5-(6-aminopurin-9-yl)-4-hydroxy-3-phosphonooxy-tetrahydrofuran-2-yl]methyl [hydroxy-[3-hydroxy-2,2-dimethyl-4-oxo-4-[[3-oxo-3-(2-sulfanylethylamino)propyl]amino]butoxy]phosphoryl] phosphate
   83    85     1     0     0
SMALL
USER_CHARGES

@<TRIPOS>ATOM
      1 N1A        88.6040  -84.6940  -15.4010 N.ar      1 COA        -0.7960
      2 C2A        88.5170  -85.3620  -16.6140 C.ar      1 COA         0.6737
      3 N3A        88.4530  -84.8110  -17.8270 N.ar      1 COA        -0.7273
      4 C4A        88.4890  -83.4640  -17.7910 C.ar      1 COA         0.5829
      5 C5A        88.5780  -82.6230  -16.6440 C.ar      1 COA        -0.2197
      6 C6A        88.6370  -83.3150  -15.3450 C.ar      1 COA         0.7391
      7 N6A        88.7190  -82.6940  -14.2090 N.pl3     1 COA        -0.9445
      8 N7A        88.5930  -81.3110  -16.9840 N.ar      1 COA        -0.5549
      9 C8A        88.5140  -81.2930  -18.3130 C.ar      1 COA         0.5525
     10 N9A        88.4440  -82.5690  -18.8600 N.pl3     1 COA        -0.6980
     11 C1B        88.2830  -82.8930  -20.3050 C.3       1 COA         0.3861
     12 C2B        89.1690  -84.0030  -20.8100 C.3       1 COA         0.0929
     13 O2B        90.4930  -83.5370  -21.0680 O.3       1 COA        -0.5732
     14 C3B        88.4470  -84.3520  -22.1030 C.3       1 COA         0.1878
     15 O3B        88.5340  -83.3380  -23.0200 O.3       1 COA        -0.5834
     16 P3B        88.5670  -83.7630  -24.6320 P.3       1 COA         1.6421
     17 O7A        89.7760  -84.7730  -24.8120 O.2       1 COA        -0.7930
     18 O8A        88.8680  -82.4540  -25.4620 O.3       1 COA        -0.7591
     19 O9A        87.1870  -84.4450  -25.0050 O.3       1 COA        -0.7591
     20 C4B        86.9970  -84.4910  -21.5560 C.3       1 COA         0.1055
     21 O4B        86.9570  -83.4610  -20.4760 O.3       1 COA        -0.3853
     22 C5B        86.5780  -85.7930  -20.9340 C.3       1 COA         0.1890
     23 O5B        86.6630  -86.7650  -22.0150 O.3       1 COA        -0.5657
     24 P1A        85.5120  -87.8990  -22.1320 P.3       1 COA         1.5587
     25 O1A        85.9730  -88.8420  -23.2310 O.2       1 COA        -0.8208
     26 O2A        84.1350  -87.3250  -22.2760 O.3       1 COA        -0.8208
     27 O3A        85.5440  -88.6720  -20.8060 O.3       1 COA        -0.7955
     28 P2A        86.5260  -89.8380  -20.2320 P.3       1 COA         1.7685
     29 O4A        85.9410  -91.2220  -20.3870 O.2       1 COA        -0.8514
     30 O5A        87.9130  -89.7660  -20.8150 O.3       1 COA        -0.8095
     31 O6A        86.6310  -89.4110  -18.6740 O.3       1 COA        -0.5615
     32 CBP        85.9600  -88.6360  -16.5360 C.3       1 COA        -0.0727
     33 CCP        85.5210  -89.4080  -17.8120 C.3       1 COA         0.1719
     34 CDP        87.4920  -88.7900  -16.2100 C.3       1 COA        -0.0895
     35 CEP        85.6020  -87.2100  -16.9500 C.3       1 COA        -0.0895
     36 CAP        85.1850  -89.1370  -15.2540 C.3       1 COA         0.0815
     37 OAP        85.5020  -88.2660  -14.1280 O.3       1 COA        -0.5869
     38 C9P        83.6680  -89.1660  -15.4160 C.2       1 COA         0.6186
     39 O9P        83.0890  -90.0690  -16.2240 O.2       1 COA        -0.6296
     40 N8P        82.9960  -88.2770  -14.7190 N.am      1 COA        -0.5456
     41 C7P        81.5360  -88.1930  -14.7460 C.3       1 COA         0.0966
     42 C6P        81.0500  -88.2840  -13.2980 C.3       1 COA        -0.1967
     43 C5P        81.4830  -89.5720  -12.6330 C.2       1 COA         0.6662
     44 O5P        81.5080  -90.7220  -13.2480 O.2       1 COA        -0.6153
     45 N4P        81.8280  -89.4210  -11.3700 N.am      1 COA        -0.5872
     46 C3P        82.3050  -90.5540  -10.4610 C.3       1 COA         0.0979
     47 C2P        81.0660  -91.3020  -10.0080 C.3       1 COA        -0.0217
     48 S1P        81.4370  -92.6410   -8.8190 S.3       1 COA        -0.3904
     49 H2A        88.4990  -86.4230  -16.5720 H         1 COA         0.0451
     50 H61A       88.7598  -83.2668  -13.2708 H         1 COA         0.4336
     51 H62A       88.7477  -81.5947  -14.1840 H         1 COA         0.4336
     52 H8A        88.5050  -80.4030  -18.8910 H         1 COA         0.0960
     53 H1B        88.4770  -81.9515  -20.8397 H         1 COA         0.1158
     54 H2B        89.3598  -84.8274  -20.1072 H         1 COA         0.0643
     55 HO2A       91.1454  -83.2437  -20.2324 H         1 COA         0.4133
     56 H3B        88.8713  -85.1623  -22.7140 H         1 COA         0.0755
     57 HOA8       89.7991  -81.8946  -25.2883 H         1 COA         0.4825
     58 HOA9       86.8712  -85.3646  -24.4906 H         1 COA         0.4825
     59 H4B        86.2834  -84.3952  -22.3877 H         1 COA         0.1259
     60 H51A       87.2605  -86.0410  -20.1077 H         1 COA         0.0286
     61 H52A       85.5523  -85.7014  -20.5474 H         1 COA         0.0286
     62 HOA5       88.0786  -90.0175  -21.8730 H         1 COA         0.4651
     63 H121       84.6753  -88.9064  -18.3050 H         1 COA         0.0370
     64 H122       85.2421  -90.4441  -17.5697 H         1 COA         0.0370
     65 H131       88.0860  -88.4540  -17.0727 H         1 COA         0.0480
     66 H132       87.7175  -89.8456  -15.9983 H         1 COA         0.0480
     67 H133       87.7432  -88.1780  -15.3311 H         1 COA         0.0480
     68 H141       86.1780  -86.9326  -17.8451 H         1 COA         0.0480
     69 H142       85.8437  -86.5184  -16.1295 H         1 COA         0.0480
     70 H143       84.5265  -87.1522  -17.1735 H         1 COA         0.0480
     71 H10        85.5087  -90.1600  -15.0118 H         1 COA         0.0989
     72 HO1        86.5501  -88.1036  -13.8363 H         1 COA         0.4201
     73 HN8        83.5757  -87.5785  -14.0977 H         1 COA         0.3181
     74 H71        81.2320  -87.2366  -15.1965 H         1 COA         0.0765
     75 H72        81.1319  -89.0242  -15.3425 H         1 COA         0.0765
     76 H61        81.4621  -87.4441  -12.7195 H         1 COA         0.0839
     77 H62        79.9511  -88.2397  -13.2766 H         1 COA         0.0839
     78 HN4        81.7547  -88.3956  -10.9785 H         1 COA         0.3169
     79 H31        82.9779  -91.2173  -11.0242 H         1 COA         0.0659
     80 H32        82.8431  -90.1313   -9.5998 H         1 COA         0.0659
     81 H21        80.3736  -90.6017   -9.5181 H         1 COA         0.0821
     82 H22        80.5724  -91.7559  -10.8800 H         1 COA         0.0821
     83 HS1        80.6217  -93.2588   -8.4145 H         1 COA         0.2086
@<TRIPOS>BOND
     1    1    2 ar
     2    1    6 ar
     3    2    3 ar
     4    2   49 1
     5    3    4 ar
     6    4    5 ar
     7    4   10 ar
     8    5    6 ar
     9    5    8 ar
    10    6    7 1
    11    7   50 1
    12    7   51 1
    13    8    9 ar
    14    9   10 ar
    15    9   52 1
    16   10   11 1
    17   11   12 1
    18   11   21 1
    19   11   53 1
    20   12   13 1
    21   12   14 1
    22   12   54 1
    23   13   55 1
    24   14   15 1
    25   14   20 1
    26   14   56 1
    27   15   16 1
    28   16   17 2
    29   16   18 1
    30   16   19 1
    31   18   57 1
    32   19   58 1
    33   20   21 1
    34   20   22 1
    35   20   59 1
    36   22   23 1
    37   22   60 1
    38   22   61 1
    39   23   24 1
    40   24   25 2
    41   24   26 1
    42   24   27 1
    43   27   28 1
    44   28   29 2
    45   28   30 1
    46   28   31 1
    47   30   62 1
    48   31   33 1
    49   32   33 1
    50   32   34 1
    51   32   35 1
    52   32   36 1
    53   33   63 1
    54   33   64 1
    55   34   65 1
    56   34   66 1
    57   34   67 1
    58   35   68 1
    59   35   69 1
    60   35   70 1
    61   36   37 1
    62   36   38 1
    63   36   71 1
    64   37   72 1
    65   38   39 2
    66   38   40 am
    67   40   41 1
    68   40   73 1
    69   41   42 1
    70   41   74 1
    71   41   75 1
    72   42   43 1
    73   42   76 1
    74   42   77 1
    75   43   44 2
    76   43   45 am
    77   45   46 1
    78   45   78 1
    79   46   47 1
    80   46   79 1
    81   46   80 1
    82   47   48 1
    83   47   81 1
    84   47   82 1
    85   48   83 1
@<TRIPOS>SUBSTRUCTURE
     1 COA         1 GROUP   0 A     ****
@<TRIPOS>MOLECULE
[5-(6-aminopurin-9-yl)-4-hydroxy-2-[[hydroxy-[hydroxy-[3-hydroxy-2,2-dimethyl-4-oxo-4-[[3-oxo-3-(2-sulfanylethylamino)propyl]amino]butoxy]phosphoryl]oxy-phosphoryl]oxymethyl]tetrahydrofuran-3-yl] hydrogen phosphate
   83    85     1     0     0
SMALL
USER_CHARGES

@<TRIPOS>ATOM
      1 N1A        88.6040  -84.6940  -15.4010 N.ar      1 COA        -0.8069
      2 C2A        88.5170  -85.3620  -16.6140 C.ar      1 COA         0.6767
      3 N3A        88.4530  -84.8110  -17.8270 N.ar      1 COA        -0.7084
      4 C4A        88.4890  -83.4640  -17.7910 C.ar      1 COA         0.5958
      5 C5A        88.5780  -82.6230  -16.6440 C.ar      1 COA        -0.2189
      6 C6A        88.6370  -83.3150  -15.3450 C.ar      1 COA         0.7327
      7 N6A        88.7190  -82.6940  -14.2090 N.pl3     1 COA        -0.9404
      8 N7A        88.5930  -81.3110  -16.9840 N.ar      1 COA        -0.5648
      9 C8A        88.5140  -81.2930  -18.3130 C.ar      1 COA         0.5359
     10 N9A        88.4440  -82.5690  -18.8600 N.pl3     1 COA        -0.6642
     11 C1B        88.2830  -82.8930  -20.3050 C.3       1 COA         0.3857
     12 C2B        89.1690  -84.0030  -20.8100 C.3       1 COA         0.1059
     13 O2B        90.4930  -83.5370  -21.0680 O.3       1 COA        -0.5880
     14 C3B        88.4470  -84.3520  -22.1030 C.3       1 COA         0.1788
     15 O3B        88.5340  -83.3380  -23.0200 O.3       1 COA        -0.5614
     16 P3B        88.5670  -83.7630  -24.6320 P.3       1 COA         1.4358
     17 O7A        89.7760  -84.7730  -24.8120 O.2       1 COA        -0.8214
     18 O8A        88.8680  -82.4540  -25.4620 O.3       1 COA        -0.8214
     19 O9A        87.1870  -84.4450  -25.0050 O.3       1 COA        -0.7820
     20 C4B        86.9970  -84.4910  -21.5560 C.3       1 COA         0.1082
     21 O4B        86.9570  -83.4610  -20.4760 O.3       1 COA        -0.4343
     22 C5B        86.5780  -85.7930  -20.9340 C.3       1 COA         0.1631
     23 O5B        86.6630  -86.7650  -22.0150 O.3       1 COA        -0.5654
     24 P1A        85.5120  -87.8990  -22.1320 P.3       1 COA         1.7940
     25 O1A        85.9730  -88.8420  -23.2310 O.2       1 COA        -0.8166
     26 O2A        84.1350  -87.3250  -22.2760 O.3       1 COA        -0.7970
     27 O3A        85.5440  -88.6720  -20.8060 O.3       1 COA        -0.8066
     28 P2A        86.5260  -89.8380  -20.2320 P.3       1 COA         1.7971
     29 O4A        85.9410  -91.2220  -20.3870 O.2       1 COA        -0.8431
     30 O5A        87.9130  -89.7660  -20.8150 O.3       1 COA        -0.7838
     31 O6A        86.6310  -89.4110  -18.6740 O.3       1 COA        -0.5932
     32 CBP        85.9600  -88.6360  -16.5360 C.3       1 COA        -0.0548
     33 CCP        85.5210  -89.4080  -17.8120 C.3       1 COA         0.1694
     34 CDP        87.4920  -88.7900  -16.2100 C.3       1 COA        -0.0940
     35 CEP        85.6020  -87.2100  -16.9500 C.3       1 COA        -0.0940
     36 CAP        85.1850  -89.1370  -15.2540 C.3       1 COA         0.0931
     37 OAP        85.5020  -88.2660  -14.1280 O.3       1 COA        -0.5999
     38 C9P        83.6680  -89.1660  -15.4160 C.2       1 COA         0.6207
     39 O9P        83.0890  -90.0690  -16.2240 O.2       1 COA        -0.6271
     40 N8P        82.9960  -88.2770  -14.7190 N.am      1 COA        -0.5491
     41 C7P        81.5360  -88.1930  -14.7460 C.3       1 COA         0.0977
     42 C6P        81.0500  -88.2840  -13.2980 C.3       1 COA        -0.1921
     43 C5P        81.4830  -89.5720  -12.6330 C.2       1 COA         0.6674
     44 O5P        81.5080  -90.7220  -13.2480 O.2       1 COA        -0.6131
     45 N4P        81.8280  -89.4210  -11.3700 N.am      1 COA        -0.5774
     46 C3P        82.3050  -90.5540  -10.4610 C.3       1 COA         0.0949
     47 C2P        81.0660  -91.3020  -10.0080 C.3       1 COA        -0.0300
     48 S1P        81.4370  -92.6410   -8.8190 S.3       1 COA        -0.3617
     49 H2A        88.4990  -86.4230  -16.5720 H         1 COA         0.0498
     50 H61A       88.7598  -83.2668  -13.2708 H         1 COA         0.4243
     51 H62A       88.7477  -81.5947  -14.1840 H         1 COA         0.4243
     52 H8A        88.5050  -80.4030  -18.8910 H         1 COA         0.0727
     53 H1B        88.4770  -81.9515  -20.8397 H         1 COA         0.1273
     54 H2B        89.3598  -84.8274  -20.1072 H         1 COA         0.0578
     55 HO2A       91.1454  -83.2437  -20.2324 H         1 COA         0.4440
     56 H3B        88.8713  -85.1623  -22.7140 H         1 COA         0.0593
     57 HOA9       86.8712  -85.3646  -24.4906 H         1 COA         0.4287
     58 H4B        86.2834  -84.3952  -22.3877 H         1 COA         0.1310
     59 H51A       87.2605  -86.0410  -20.1077 H         1 COA         0.0583
     60 H52A       85.5523  -85.7014  -20.5474 H         1 COA         0.0583
     61 HOA2       83.8791  -86.7250  -23.1617 H         1 COA         0.4906
     62 HOA5       88.0786  -90.0175  -21.8730 H         1 COA         0.4839
     63 H121       84.6753  -88.9064  -18.3050 H         1 COA         0.0455
     64 H122       85.2421  -90.4441  -17.5697 H         1 COA         0.0455
     65 H131       88.0860  -88.4540  -17.0727 H         1 COA         0.0504
     66 H132       87.7175  -89.8456  -15.9983 H         1 COA         0.0504
     67 H133       87.7432  -88.1780  -15.3311 H         1 COA         0.0504
     68 H141       86.1780  -86.9326  -17.8451 H         1 COA         0.0504
     69 H142       85.8437  -86.5184  -16.1295 H         1 COA         0.0504
     70 H143       84.5265  -87.1522  -17.1735 H         1 COA         0.0504
     71 H10        85.5087  -90.1600  -15.0118 H         1 COA         0.0893
     72 HO1        86.5501  -88.1036  -13.8363 H         1 COA         0.4266
     73 HN8        83.5757  -87.5785  -14.0977 H         1 COA         0.3195
     74 H71        81.2320  -87.2366  -15.1965 H         1 COA         0.0800
     75 H72        81.1319  -89.0242  -15.3425 H         1 COA         0.0800
     76 H61        81.4621  -87.4441  -12.7195 H         1 COA         0.0779
     77 H62        79.9511  -88.2397  -13.2766 H         1 COA         0.0779
     78 HN4        81.7547  -88.3956  -10.9785 H         1 COA         0.3133
     79 H31        82.9779  -91.2173  -11.0242 H         1 COA         0.0679
     80 H32        82.8431  -90.1313   -9.5998 H         1 COA         0.0679
     81 H21        80.3736  -90.6017   -9.5181 H         1 COA         0.0803
     82 H22        80.5724  -91.7559  -10.8800 H         1 COA         0.0803
     83 HS1        80.6217  -93.2588   -8.4145 H         1 COA         0.1938
@<TRIPOS>BOND
     1    1    2 ar
     2    1    6 ar
     3    2    3 ar
     4    2   49 1
     5    3    4 ar
     6    4    5 ar
     7    4   10 ar
     8    5    6 ar
     9    5    8 ar
    10    6    7 1
    11    7   50 1
    12    7   51 1
    13    8    9 ar
    14    9   10 ar
    15    9   52 1
    16   10   11 1
    17   11   12 1
    18   11   21 1
    19   11   53 1
    20   12   13 1
    21   12   14 1
    22   12   54 1
    23   13   55 1
    24   14   15 1
    25   14   20 1
    26   14   56 1
    27   15   16 1
    28   16   17 2
    29   16   18 1
    30   16   19 1
    31   19   57 1
    32   20   21 1
    33   20   22 1
    34   20   58 1
    35   22   23 1
    36   22   59 1
    37   22   60 1
    38   23   24 1
    39   24   25 2
    40   24   26 1
    41   24   27 1
    42   26   61 1
    43   27   28 1
    44   28   29 2
    45   28   30 1
    46   28   31 1
    47   30   62 1
    48   31   33 1
    49   32   33 1
    50   32   34 1
    51   32   35 1
    52   32   36 1
    53   33   63 1
    54   33   64 1
    55   34   65 1
    56   34   66 1
    57   34   67 1
    58   35   68 1
    59   35   69 1
    60   35   70 1
    61   36   37 1
    62   36   38 1
    63   36   71 1
    64   37   72 1
    65   38   39 2
    66   38   40 am
    67   40   41 1
    68   40   73 1
    69   41   42 1
    70   41   74 1
    71   41   75 1
    72   42   43 1
    73   42   76 1
    74   42   77 1
    75   43   44 2
    76   43   45 am
    77   45   46 1
    78   45   78 1
    79   46   47 1
    80   46   79 1
    81   46   80 1
    82   47   48 1
    83   47   81 1
    84   47   82 1
    85   48   83 1
@<TRIPOS>SUBSTRUCTURE
     1 COA         1 GROUP   0 A     ****
@<TRIPOS>MOLECULE
[[5-(6-amino-1,2-dihydropurin-2-ylium-9-yl)-4-hydroxy-3-phosphonooxy-tetrahydrofuran-2-yl]methoxy-oxido-phosphoryl] [3-hydroxy-2,2-dimethyl-4-oxo-4-[[3-oxo-3-(2-sulfanylethylamino)propyl]amino]butyl] phosphate
   83    85     1     0     0
SMALL
USER_CHARGES

@<TRIPOS>ATOM
      1 N1A        88.6040  -84.6940  -15.4010 N.pl3     1 COA        -0.6279
      2 C2A        88.5170  -85.3620  -16.6140 C.cat     1 COA         0.2674
      3 N3A        88.4530  -84.8110  -17.8270 N.ar      1 COA        -0.5315
      4 C4A        88.4890  -83.4640  -17.7910 C.ar      1 COA         0.5757
      5 C5A        88.5780  -82.6230  -16.6440 C.ar      1 COA        -0.1509
      6 C6A        88.6370  -83.3150  -15.3450 C.ar      1 COA         0.4712
      7 N6A        88.7190  -82.6940  -14.2090 N.pl3     1 COA        -0.8293
      8 N7A        88.5930  -81.3110  -16.9840 N.ar      1 COA        -0.5470
      9 C8A        88.5140  -81.2930  -18.3130 C.ar      1 COA         0.6267
     10 N9A        88.4440  -82.5690  -18.8600 N.pl3     1 COA        -0.6037
     11 C1B        88.2830  -82.8930  -20.3050 C.3       1 COA         0.3814
     12 C2B        89.1690  -84.0030  -20.8100 C.3       1 COA         0.0938
     13 O2B        90.4930  -83.5370  -21.0680 O.3       1 COA        -0.5576
     14 C3B        88.4470  -84.3520  -22.1030 C.3       1 COA         0.1782
     15 O3B        88.5340  -83.3380  -23.0200 O.3       1 COA        -0.5811
     16 P3B        88.5670  -83.7630  -24.6320 P.3       1 COA         1.6454
     17 O7A        89.7760  -84.7730  -24.8120 O.2       1 COA        -0.7894
     18 O8A        88.8680  -82.4540  -25.4620 O.3       1 COA        -0.7641
     19 O9A        87.1870  -84.4450  -25.0050 O.3       1 COA        -0.7641
     20 C4B        86.9970  -84.4910  -21.5560 C.3       1 COA         0.0879
     21 O4B        86.9570  -83.4610  -20.4760 O.3       1 COA        -0.3818
     22 C5B        86.5780  -85.7930  -20.9340 C.3       1 COA         0.1932
     23 O5B        86.6630  -86.7650  -22.0150 O.3       1 COA        -0.5591
     24 P1A        85.5120  -87.8990  -22.1320 P.3       1 COA         1.6096
     25 O1A        85.9730  -88.8420  -23.2310 O.2       1 COA        -0.8761
     26 O2A        84.1350  -87.3250  -22.2760 O.3       1 COA        -0.8761
     27 O3A        85.5440  -88.6720  -20.8060 O.3       1 COA        -0.8156
     28 P2A        86.5260  -89.8380  -20.2320 P.3       1 COA         1.5977
     29 O4A        85.9410  -91.2220  -20.3870 O.2       1 COA        -0.8623
     30 O5A        87.9130  -89.7660  -20.8150 O.3       1 COA        -0.8623
     31 O6A        86.6310  -89.4110  -18.6740 O.3       1 COA        -0.5873
     32 CBP        85.9600  -88.6360  -16.5360 C.3       1 COA        -0.0873
     33 CCP        85.5210  -89.4080  -17.8120 C.3       1 COA         0.2031
     34 CDP        87.4920  -88.7900  -16.2100 C.3       1 COA        -0.0810
     35 CEP        85.6020  -87.2100  -16.9500 C.3       1 COA        -0.0810
     36 CAP        85.1850  -89.1370  -15.2540 C.3       1 COA         0.0878
     37 OAP        85.5020  -88.2660  -14.1280 O.3       1 COA        -0.6099
     38 C9P        83.6680  -89.1660  -15.4160 C.2       1 COA         0.6275
     39 O9P        83.0890  -90.0690  -16.2240 O.2       1 COA        -0.6910
     40 N8P        82.9960  -88.2770  -14.7190 N.am      1 COA        -0.5457
     41 C7P        81.5360  -88.1930  -14.7460 C.3       1 COA         0.1097
     42 C6P        81.0500  -88.2840  -13.2980 C.3       1 COA        -0.1748
     43 C5P        81.4830  -89.5720  -12.6330 C.2       1 COA         0.6642
     44 O5P        81.5080  -90.7220  -13.2480 O.2       1 COA        -0.6093
     45 N4P        81.8280  -89.4210  -11.3700 N.am      1 COA        -0.5992
     46 C3P        82.3050  -90.5540  -10.4610 C.3       1 COA         0.0991
     47 C2P        81.0660  -91.3020  -10.0080 C.3       1 COA        -0.0149
     48 S1P        81.4370  -92.6410   -8.8190 S.3       1 COA        -0.4103
     49 H2A        88.4990  -86.4230  -16.5720 H         1 COA         0.2198
     50 H61A       88.7598  -83.2668  -13.2708 H         1 COA         0.4776
     51 H62A       88.7477  -81.5947  -14.1840 H         1 COA         0.4776
     52 H8A        88.5050  -80.4030  -18.8910 H         1 COA         0.2248
     53 H1B        88.4770  -81.9515  -20.8397 H         1 COA         0.1016
     54 H2B        89.3598  -84.8274  -20.1072 H         1 COA         0.0775
     55 HO2A       91.1454  -83.2437  -20.2324 H         1 COA         0.3985
     56 H3B        88.8713  -85.1623  -22.7140 H         1 COA         0.0837
     57 HOA8       89.7991  -81.8946  -25.2883 H         1 COA         0.4875
     58 HOA9       86.8712  -85.3646  -24.4906 H         1 COA         0.4875
     59 H4B        86.2834  -84.3952  -22.3877 H         1 COA         0.1241
     60 H51A       87.2605  -86.0410  -20.1077 H         1 COA         0.0356
     61 H52A       85.5523  -85.7014  -20.5474 H         1 COA         0.0356
     62 H121       84.6753  -88.9064  -18.3050 H         1 COA         0.0194
     63 H122       85.2421  -90.4441  -17.5697 H         1 COA         0.0194
     64 H131       88.0860  -88.4540  -17.0727 H         1 COA         0.0336
     65 H132       87.7175  -89.8456  -15.9983 H         1 COA         0.0336
     66 H133       87.7432  -88.1780  -15.3311 H         1 COA         0.0336
     67 H141       86.1780  -86.9326  -17.8451 H         1 COA         0.0336
     68 H142       85.8437  -86.5184  -16.1295 H         1 COA         0.0336
     69 H143       84.5265  -87.1522  -17.1735 H         1 COA         0.0336
     70 H10        85.5087  -90.1600  -15.0118 H         1 COA         0.1142
     71 HO1        86.5501  -88.1036  -13.8363 H         1 COA         0.4092
     72 HN8        83.5757  -87.5785  -14.0977 H         1 COA         0.3952
     73 H71        81.2320  -87.2366  -15.1965 H         1 COA         0.0694
     74 H72        81.1319  -89.0242  -15.3425 H         1 COA         0.0694
     75 H61        81.4621  -87.4441  -12.7195 H         1 COA         0.0741
     76 H62        79.9511  -88.2397  -13.2766 H         1 COA         0.0741
     77 HN4        81.7547  -88.3956  -10.9785 H         1 COA         0.3096
     78 H31        82.9779  -91.2173  -11.0242 H         1 COA         0.0634
     79 H32        82.8431  -90.1313   -9.5998 H         1 COA         0.0634
     80 H21        80.3736  -90.6017   -9.5181 H         1 COA         0.0793
     81 H22        80.5724  -91.7559  -10.8800 H         1 COA         0.0793
     82 HS1        80.6217  -93.2588   -8.4145 H         1 COA         0.2151
     83 H83        88.6480  -85.2639  -14.4612 H         1 COA         0.4650
@<TRIPOS>BOND
     1    1    2 ar
     2    1    6 ar
     3    1   83 1
     4    2    3 ar
     5    2   49 1
     6    3    4 ar
     7    4    5 ar
     8    4   10 ar
     9    5    6 ar
    10    5    8 ar
    11    6    7 1
    12    7   50 1
    13    7   51 1
    14    8    9 ar
    15    9   10 ar
    16    9   52 1
    17   10   11 1
    18   11   12 1
    19   11   21 1
    20   11   53 1
    21   12   13 1
    22   12   14 1
    23   12   54 1
    24   13   55 1
    25   14   15 1
    26   14   20 1
    27   14   56 1
    28   15   16 1
    29   16   17 2
    30   16   18 1
    31   16   19 1
    32   18   57 1
    33   19   58 1
    34   20   21 1
    35   20   22 1
    36   20   59 1
    37   22   23 1
    38   22   60 1
    39   22   61 1
    40   23   24 1
    41   24   25 2
    42   24   26 1
    43   24   27 1
    44   27   28 1
    45   28   29 2
    46   28   30 1
    47   28   31 1
    48   31   33 1
    49   32   33 1
    50   32   34 1
    51   32   35 1
    52   32   36 1
    53   33   62 1
    54   33   63 1
    55   34   64 1
    56   34   65 1
    57   34   66 1
    58   35   67 1
    59   35   68 1
    60   35   69 1
    61   36   37 1
    62   36   38 1
    63   36   70 1
    64   37   71 1
    65   38   39 2
    66   38   40 am
    67   40   41 1
    68   40   72 1
    69   41   42 1
    70   41   73 1
    71   41   74 1
    72   42   43 1
    73   42   75 1
    74   42   76 1
    75   43   44 2
    76   43   45 am
    77   45   46 1
    78   45   77 1
    79   46   47 1
    80   46   78 1
    81   46   79 1
    82   47   48 1
    83   47   80 1
    84   47   81 1
    85   48   82 1
@<TRIPOS>SUBSTRUCTURE
     1 COA         1 GROUP   0 A     ****
@<TRIPOS>MOLECULE
[[5-(6-aminopurin-9-yl)-4-hydroxy-3-phosphonooxy-tetrahydrofuran-2-yl]methoxy-hydroxy-phosphoryl] [3-hydroxy-2,2-dimethyl-4-oxo-4-[[3-oxo-3-(2-sulfanylethylamino)propyl]amino]butyl] phosphate
   83    85     1     0     0
SMALL
USER_CHARGES

@<TRIPOS>ATOM
      1 N1A        88.6040  -84.6940  -15.4010 N.ar      1 COA        -0.8019
      2 C2A        88.5170  -85.3620  -16.6140 C.ar      1 COA         0.6745
      3 N3A        88.4530  -84.8110  -17.8270 N.ar      1 COA        -0.7213
      4 C4A        88.4890  -83.4640  -17.7910 C.ar      1 COA         0.5882
      5 C5A        88.5780  -82.6230  -16.6440 C.ar      1 COA        -0.2203
      6 C6A        88.6370  -83.3150  -15.3450 C.ar      1 COA         0.7440
      7 N6A        88.7190  -82.6940  -14.2090 N.pl3     1 COA        -0.9521
      8 N7A        88.5930  -81.3110  -16.9840 N.ar      1 COA        -0.5567
      9 C8A        88.5140  -81.2930  -18.3130 C.ar      1 COA         0.5533
     10 N9A        88.4440  -82.5690  -18.8600 N.pl3     1 COA        -0.6966
     11 C1B        88.2830  -82.8930  -20.3050 C.3       1 COA         0.4378
     12 C2B        89.1690  -84.0030  -20.8100 C.3       1 COA         0.1012
     13 O2B        90.4930  -83.5370  -21.0680 O.3       1 COA        -0.5596
     14 C3B        88.4470  -84.3520  -22.1030 C.3       1 COA         0.1382
     15 O3B        88.5340  -83.3380  -23.0200 O.3       1 COA        -0.5855
     16 P3B        88.5670  -83.7630  -24.6320 P.3       1 COA         1.6464
     17 O7A        89.7760  -84.7730  -24.8120 O.2       1 COA        -0.7932
     18 O8A        88.8680  -82.4540  -25.4620 O.3       1 COA        -0.7668
     19 O9A        87.1870  -84.4450  -25.0050 O.3       1 COA        -0.7668
     20 C4B        86.9970  -84.4910  -21.5560 C.3       1 COA         0.1088
     21 O4B        86.9570  -83.4610  -20.4760 O.3       1 COA        -0.4009
     22 C5B        86.5780  -85.7930  -20.9340 C.3       1 COA         0.1730
     23 O5B        86.6630  -86.7650  -22.0150 O.3       1 COA        -0.5699
     24 P1A        85.5120  -87.8990  -22.1320 P.3       1 COA         1.7919
     25 O1A        85.9730  -88.8420  -23.2310 O.2       1 COA        -0.8442
     26 O2A        84.1350  -87.3250  -22.2760 O.3       1 COA        -0.8142
     27 O3A        85.5440  -88.6720  -20.8060 O.3       1 COA        -0.8043
     28 P2A        86.5260  -89.8380  -20.2320 P.3       1 COA         1.5654
     29 O4A        85.9410  -91.2220  -20.3870 O.2       1 COA        -0.8292
     30 O5A        87.9130  -89.7660  -20.8150 O.3       1 COA        -0.8292
     31 O6A        86.6310  -89.4110  -18.6740 O.3       1 COA        -0.5806
     32 CBP        85.9600  -88.6360  -16.5360 C.3       1 COA        -0.0722
     33 CCP        85.5210  -89.4080  -17.8120 C.3       1 COA         0.1862
     34 CDP        87.4920  -88.7900  -16.2100 C.3       1 COA        -0.0799
     35 CEP        85.6020  -87.2100  -16.9500 C.3       1 COA        -0.0799
     36 CAP        85.1850  -89.1370  -15.2540 C.3       1 COA         0.0856
     37 OAP        85.5020  -88.2660  -14.1280 O.3       1 COA        -0.6006
     38 C9P        83.6680  -89.1660  -15.4160 C.2       1 COA         0.6277
     39 O9P        83.0890  -90.0690  -16.2240 O.2       1 COA        -0.6454
     40 N8P        82.9960  -88.2770  -14.7190 N.am      1 COA        -0.5519
     41 C7P        81.5360  -88.1930  -14.7460 C.3       1 COA         0.1034
     42 C6P        81.0500  -88.2840  -13.2980 C.3       1 COA        -0.1881
     43 C5P        81.4830  -89.5720  -12.6330 C.2       1 COA         0.6669
     44 O5P        81.5080  -90.7220  -13.2480 O.2       1 COA        -0.6177
     45 N4P        81.8280  -89.4210  -11.3700 N.am      1 COA        -0.5846
     46 C3P        82.3050  -90.5540  -10.4610 C.3       1 COA         0.0957
     47 C2P        81.0660  -91.3020  -10.0080 C.3       1 COA        -0.0228
     48 S1P        81.4370  -92.6410   -8.8190 S.3       1 COA        -0.3982
     49 H2A        88.4990  -86.4230  -16.5720 H         1 COA         0.0448
     50 H61A       88.7598  -83.2668  -13.2708 H         1 COA         0.4372
     51 H62A       88.7477  -81.5947  -14.1840 H         1 COA         0.4372
     52 H8A        88.5050  -80.4030  -18.8910 H         1 COA         0.1043
     53 H1B        88.4770  -81.9515  -20.8397 H         1 COA         0.1179
     54 H2B        89.3598  -84.8274  -20.1072 H         1 COA         0.0674
     55 HO2A       91.1454  -83.2437  -20.2324 H         1 COA         0.4087
     56 H3B        88.8713  -85.1623  -22.7140 H         1 COA         0.0667
     57 HOA8       89.7991  -81.8946  -25.2883 H         1 COA         0.4919
     58 HOA9       86.8712  -85.3646  -24.4906 H         1 COA         0.4919
     59 H4B        86.2834  -84.3952  -22.3877 H         1 COA         0.1164
     60 H51A       87.2605  -86.0410  -20.1077 H         1 COA         0.0567
     61 H52A       85.5523  -85.7014  -20.5474 H         1 COA         0.0567
     62 HOA2       83.8791  -86.7250  -23.1617 H         1 COA         0.4749
     63 H121       84.6753  -88.9064  -18.3050 H         1 COA         0.0258
     64 H122       85.2421  -90.4441  -17.5697 H         1 COA         0.0258
     65 H131       88.0860  -88.4540  -17.0727 H         1 COA         0.0399
     66 H132       87.7175  -89.8456  -15.9983 H         1 COA         0.0399
     67 H133       87.7432  -88.1780  -15.3311 H         1 COA         0.0399
     68 H141       86.1780  -86.9326  -17.8451 H         1 COA         0.0399
     69 H142       85.8437  -86.5184  -16.1295 H         1 COA         0.0399
     70 H143       84.5265  -87.1522  -17.1735 H         1 COA         0.0399
     71 H10        85.5087  -90.1600  -15.0118 H         1 COA         0.0814
     72 HO1        86.5501  -88.1036  -13.8363 H         1 COA         0.4235
     73 HN8        83.5757  -87.5785  -14.0977 H         1 COA         0.3380
     74 H71        81.2320  -87.2366  -15.1965 H         1 COA         0.0732
     75 H72        81.1319  -89.0242  -15.3425 H         1 COA         0.0732
     76 H61        81.4621  -87.4441  -12.7195 H         1 COA         0.0830
     77 H62        79.9511  -88.2397  -13.2766 H         1 COA         0.0830
     78 HN4        81.7547  -88.3956  -10.9785 H         1 COA         0.3153
     79 H31        82.9779  -91.2173  -11.0242 H         1 COA         0.0653
     80 H32        82.8431  -90.1313   -9.5998 H         1 COA         0.0653
     81 H21        80.3736  -90.6017   -9.5181 H         1 COA         0.0806
     82 H22        80.5724  -91.7559  -10.8800 H         1 COA         0.0806
     83 HS1        80.6217  -93.2588   -8.4145 H         1 COA         0.2200
@<TRIPOS>BOND
     1    1    2 ar
     2    1    6 ar
     3    2    3 ar
     4    2   49 1
     5    3    4 ar
     6    4    5 ar
     7    4   10 ar
     8    5    6 ar
     9    5    8 ar
    10    6    7 1
    11    7   50 1
    12    7   51 1
    13    8    9 ar
    14    9   10 ar
    15    9   52 1
    16   10   11 1
    17   11   12 1
    18   11   21 1
    19   11   53 1
    20   12   13 1
    21   12   14 1
    22   12   54 1
    23   13   55 1
    24   14   15 1
    25   14   20 1
    26   14   56 1
    27   15   16 1
    28   16   17 2
    29   16   18 1
    30   16   19 1
    31   18   57 1
    32   19   58 1
    33   20   21 1
    34   20   22 1
    35   20   59 1
    36   22   23 1
    37   22   60 1
    38   22   61 1
    39   23   24 1
    40   24   25 2
    41   24   26 1
    42   24   27 1
    43   26   62 1
    44   27   28 1
    45   28   29 2
    46   28   30 1
    47   28   31 1
    48   31   33 1
    49   32   33 1
    50   32   34 1
    51   32   35 1
    52   32   36 1
    53   33   63 1
    54   33   64 1
    55   34   65 1
    56   34   66 1
    57   34   67 1
    58   35   68 1
    59   35   69 1
    60   35   70 1
    61   36   37 1
    62   36   38 1
    63   36   71 1
    64   37   72 1
    65   38   39 2
    66   38   40 am
    67   40   41 1
    68   40   73 1
    69   41   42 1
    70   41   74 1
    71   41   75 1
    72   42   43 1
    73   42   76 1
    74   42   77 1
    75   43   44 2
    76   43   45 am
    77   45   46 1
    78   45   78 1
    79   46   47 1
    80   46   79 1
    81   46   80 1
    82   47   48 1
    83   47   81 1
    84   47   82 1
    85   48   83 1
@<TRIPOS>SUBSTRUCTURE
     1 COA         1 GROUP   0 A     ****
@<TRIPOS>MOLECULE
[5-(6-amino-1,2-dihydropurin-2-ylium-9-yl)-4-hydroxy-3-phosphonooxy-tetrahydrofuran-2-yl]methyl [hydroxy-[3-hydroxy-2,2-dimethyl-4-oxo-4-[[3-oxo-3-(2-sulfanylethylamino)propyl]amino]butoxy]phosphoryl] phosphate
   84    86     1     0     0
SMALL
USER_CHARGES

@<TRIPOS>ATOM
      1 N1A        88.6040  -84.6940  -15.4010 N.pl3     1 COA        -0.6250
      2 C2A        88.5170  -85.3620  -16.6140 C.cat     1 COA         0.2856
      3 N3A        88.4530  -84.8110  -17.8270 N.ar      1 COA        -0.5357
      4 C4A        88.4890  -83.4640  -17.7910 C.ar      1 COA         0.5864
      5 C5A        88.5780  -82.6230  -16.6440 C.ar      1 COA        -0.1597
      6 C6A        88.6370  -83.3150  -15.3450 C.ar      1 COA         0.4823
      7 N6A        88.7190  -82.6940  -14.2090 N.pl3     1 COA        -0.8184
      8 N7A        88.5930  -81.3110  -16.9840 N.ar      1 COA        -0.5325
      9 C8A        88.5140  -81.2930  -18.3130 C.ar      1 COA         0.6048
     10 N9A        88.4440  -82.5690  -18.8600 N.pl3     1 COA        -0.6080
     11 C1B        88.2830  -82.8930  -20.3050 C.3       1 COA         0.3779
     12 C2B        89.1690  -84.0030  -20.8100 C.3       1 COA         0.0988
     13 O2B        90.4930  -83.5370  -21.0680 O.3       1 COA        -0.5470
     14 C3B        88.4470  -84.3520  -22.1030 C.3       1 COA         0.1743
     15 O3B        88.5340  -83.3380  -23.0200 O.3       1 COA        -0.5390
     16 P3B        88.5670  -83.7630  -24.6320 P.3       1 COA         1.6437
     17 O7A        89.7760  -84.7730  -24.8120 O.2       1 COA        -0.8128
     18 O8A        88.8680  -82.4540  -25.4620 O.3       1 COA        -0.7636
     19 O9A        87.1870  -84.4450  -25.0050 O.3       1 COA        -0.7636
     20 C4B        86.9970  -84.4910  -21.5560 C.3       1 COA         0.0943
     21 O4B        86.9570  -83.4610  -20.4760 O.3       1 COA        -0.3861
     22 C5B        86.5780  -85.7930  -20.9340 C.3       1 COA         0.1658
     23 O5B        86.6630  -86.7650  -22.0150 O.3       1 COA        -0.5619
     24 P1A        85.5120  -87.8990  -22.1320 P.3       1 COA         1.5863
     25 O1A        85.9730  -88.8420  -23.2310 O.2       1 COA        -0.8397
     26 O2A        84.1350  -87.3250  -22.2760 O.3       1 COA        -0.8397
     27 O3A        85.5440  -88.6720  -20.8060 O.3       1 COA        -0.8176
     28 P2A        86.5260  -89.8380  -20.2320 P.3       1 COA         1.8051
     29 O4A        85.9410  -91.2220  -20.3870 O.2       1 COA        -0.8375
     30 O5A        87.9130  -89.7660  -20.8150 O.3       1 COA        -0.8136
     31 O6A        86.6310  -89.4110  -18.6740 O.3       1 COA        -0.6061
     32 CBP        85.9600  -88.6360  -16.5360 C.3       1 COA        -0.0724
     33 CCP        85.5210  -89.4080  -17.8120 C.3       1 COA         0.1936
     34 CDP        87.4920  -88.7900  -16.2100 C.3       1 COA        -0.0909
     35 CEP        85.6020  -87.2100  -16.9500 C.3       1 COA        -0.0909
     36 CAP        85.1850  -89.1370  -15.2540 C.3       1 COA         0.0853
     37 OAP        85.5020  -88.2660  -14.1280 O.3       1 COA        -0.5942
     38 C9P        83.6680  -89.1660  -15.4160 C.2       1 COA         0.6325
     39 O9P        83.0890  -90.0690  -16.2240 O.2       1 COA        -0.6247
     40 N8P        82.9960  -88.2770  -14.7190 N.am      1 COA        -0.5677
     41 C7P        81.5360  -88.1930  -14.7460 C.3       1 COA         0.1063
     42 C6P        81.0500  -88.2840  -13.2980 C.3       1 COA        -0.1815
     43 C5P        81.4830  -89.5720  -12.6330 C.2       1 COA         0.6624
     44 O5P        81.5080  -90.7220  -13.2480 O.2       1 COA        -0.6099
     45 N4P        81.8280  -89.4210  -11.3700 N.am      1 COA        -0.5844
     46 C3P        82.3050  -90.5540  -10.4610 C.3       1 COA         0.0948
     47 C2P        81.0660  -91.3020  -10.0080 C.3       1 COA        -0.0251
     48 S1P        81.4370  -92.6410   -8.8190 S.3       1 COA        -0.3788
     49 H2A        88.4990  -86.4230  -16.5720 H         1 COA         0.2293
     50 H61A       88.7598  -83.2668  -13.2708 H         1 COA         0.4821
     51 H62A       88.7477  -81.5947  -14.1840 H         1 COA         0.4821
     52 H8A        88.5050  -80.4030  -18.8910 H         1 COA         0.1848
     53 H1B        88.4770  -81.9515  -20.8397 H         1 COA         0.1188
     54 H2B        89.3598  -84.8274  -20.1072 H         1 COA         0.0700
     55 HO2A       91.1454  -83.2437  -20.2324 H         1 COA         0.4038
     56 H3B        88.8713  -85.1623  -22.7140 H         1 COA         0.0889
     57 HOA8       89.7991  -81.8946  -25.2883 H         1 COA         0.4882
     58 HOA9       86.8712  -85.3646  -24.4906 H         1 COA         0.4882
     59 H4B        86.2834  -84.3952  -22.3877 H         1 COA         0.1317
     60 H51A       87.2605  -86.0410  -20.1077 H         1 COA         0.0434
     61 H52A       85.5523  -85.7014  -20.5474 H         1 COA         0.0434
     62 HOA5       88.0786  -90.0175  -21.8730 H         1 COA         0.5016
     63 H121       84.6753  -88.9064  -18.3050 H         1 COA         0.0551
     64 H122       85.2421  -90.4441  -17.5697 H         1 COA         0.0551
     65 H131       88.0860  -88.4540  -17.0727 H         1 COA         0.0425
     66 H132       87.7175  -89.8456  -15.9983 H         1 COA         0.0425
     67 H133       87.7432  -88.1780  -15.3311 H         1 COA         0.0425
     68 H141       86.1780  -86.9326  -17.8451 H         1 COA         0.0425
     69 H142       85.8437  -86.5184  -16.1295 H         1 COA         0.0425
     70 H143       84.5265  -87.1522  -17.1735 H         1 COA         0.0425
     71 H10        85.5087  -90.1600  -15.0118 H         1 COA         0.0914
     72 HO1        86.5501  -88.1036  -13.8363 H         1 COA         0.4263
     73 HN8        83.5757  -87.5785  -14.0977 H         1 COA         0.3191
     74 H71        81.2320  -87.2366  -15.1965 H         1 COA         0.0732
     75 H72        81.1319  -89.0242  -15.3425 H         1 COA         0.0732
     76 H61        81.4621  -87.4441  -12.7195 H         1 COA         0.0747
     77 H62        79.9511  -88.2397  -13.2766 H         1 COA         0.0747
     78 HN4        81.7547  -88.3956  -10.9785 H         1 COA         0.3148
     79 H31        82.9779  -91.2173  -11.0242 H         1 COA         0.0699
     80 H32        82.8431  -90.1313   -9.5998 H         1 COA         0.0699
     81 H21        80.3736  -90.6017   -9.5181 H         1 COA         0.0830
     82 H22        80.5724  -91.7559  -10.8800 H         1 COA         0.0830
     83 HS1        80.6217  -93.2588   -8.4145 H         1 COA         0.2005
     84 H84        88.6480  -85.2639  -14.4612 H         1 COA         0.4722
@<TRIPOS>BOND
     1    1    2 ar
     2    1    6 ar
     3    1   84 1
     4    2    3 ar
     5    2   49 1
     6    3    4 ar
     7    4    5 ar
     8    4   10 ar
     9    5    6 ar
    10    5    8 ar
    11    6    7 1
    12    7   50 1
    13    7   51 1
    14    8    9 ar
    15    9   10 ar
    16    9   52 1
    17   10   11 1
    18   11   12 1
    19   11   21 1
    20   11   53 1
    21   12   13 1
    22   12   14 1
    23   12   54 1
    24   13   55 1
    25   14   15 1
    26   14   20 1
    27   14   56 1
    28   15   16 1
    29   16   17 2
    30   16   18 1
    31   16   19 1
    32   18   57 1
    33   19   58 1
    34   20   21 1
    35   20   22 1
    36   20   59 1
    37   22   23 1
    38   22   60 1
    39   22   61 1
    40   23   24 1
    41   24   25 2
    42   24   26 1
    43   24   27 1
    44   27   28 1
    45   28   29 2
    46   28   30 1
    47   28   31 1
    48   30   62 1
    49   31   33 1
    50   32   33 1
    51   32   34 1
    52   32   35 1
    53   32   36 1
    54   33   63 1
    55   33   64 1
    56   34   65 1
    57   34   66 1
    58   34   67 1
    59   35   68 1
    60   35   69 1
    61   35   70 1
    62   36   37 1
    63   36   38 1
    64   36   71 1
    65   37   72 1
    66   38   39 2
    67   38   40 am
    68   40   41 1
    69   40   73 1
    70   41   42 1
    71   41   74 1
    72   41   75 1
    73   42   43 1
    74   42   76 1
    75   42   77 1
    76   43   44 2
    77   43   45 am
    78   45   46 1
    79   45   78 1
    80   46   47 1
    81   46   79 1
    82   46   80 1
    83   47   48 1
    84   47   81 1
    85   47   82 1
    86   48   83 1
@<TRIPOS>SUBSTRUCTURE
     1 COA         1 GROUP   0 A     ****
@<TRIPOS>MOLECULE
[5-(6-amino-7,8-dihydropurin-8-ylium-9-yl)-4-hydroxy-2-[[[hydroxy-[3-hydroxy-2,2-dimethyl-4-oxo-4-[[3-oxo-3-(2-sulfanylethylamino)propyl]amino]butoxy]phosphoryl]oxy-oxido-phosphoryl]oxymethyl]tetrahydrofuran-3-yl] hydrogen phosphate
   83    85     1     0     0
SMALL
USER_CHARGES

@<TRIPOS>ATOM
      1 N1A        88.6040  -84.6940  -15.4010 N.ar      1 COA        -0.7612
      2 C2A        88.5170  -85.3620  -16.6140 C.ar      1 COA         0.6977
      3 N3A        88.4530  -84.8110  -17.8270 N.ar      1 COA        -0.6803
      4 C4A        88.4890  -83.4640  -17.7910 C.ar      1 COA         0.6125
      5 C5A        88.5780  -82.6230  -16.6440 C.ar      1 COA        -0.2614
      6 C6A        88.6370  -83.3150  -15.3450 C.ar      1 COA         0.7376
      7 N6A        88.7190  -82.6940  -14.2090 N.pl3     1 COA        -0.9420
      8 N7A        88.5930  -81.3110  -16.9840 N.pl3     1 COA        -0.5377
      9 C8A        88.5140  -81.2930  -18.3130 C.cat     1 COA         0.3160
     10 N9A        88.4440  -82.5690  -18.8600 N.pl3     1 COA        -0.5657
     11 C1B        88.2830  -82.8930  -20.3050 C.3       1 COA         0.3727
     12 C2B        89.1690  -84.0030  -20.8100 C.3       1 COA         0.0897
     13 O2B        90.4930  -83.5370  -21.0680 O.3       1 COA        -0.5289
     14 C3B        88.4470  -84.3520  -22.1030 C.3       1 COA         0.2217
     15 O3B        88.5340  -83.3380  -23.0200 O.3       1 COA        -0.5451
     16 P3B        88.5670  -83.7630  -24.6320 P.3       1 COA         1.4225
     17 O7A        89.7760  -84.7730  -24.8120 O.2       1 COA        -0.8184
     18 O8A        88.8680  -82.4540  -25.4620 O.3       1 COA        -0.8184
     19 O9A        87.1870  -84.4450  -25.0050 O.3       1 COA        -0.7837
     20 C4B        86.9970  -84.4910  -21.5560 C.3       1 COA         0.0943
     21 O4B        86.9570  -83.4610  -20.4760 O.3       1 COA        -0.4071
     22 C5B        86.5780  -85.7930  -20.9340 C.3       1 COA         0.1635
     23 O5B        86.6630  -86.7650  -22.0150 O.3       1 COA        -0.5770
     24 P1A        85.5120  -87.8990  -22.1320 P.3       1 COA         1.6005
     25 O1A        85.9730  -88.8420  -23.2310 O.2       1 COA        -0.8544
     26 O2A        84.1350  -87.3250  -22.2760 O.3       1 COA        -0.8544
     27 O3A        85.5440  -88.6720  -20.8060 O.3       1 COA        -0.8023
     28 P2A        86.5260  -89.8380  -20.2320 P.3       1 COA         1.7926
     29 O4A        85.9410  -91.2220  -20.3870 O.2       1 COA        -0.8552
     30 O5A        87.9130  -89.7660  -20.8150 O.3       1 COA        -0.8010
     31 O6A        86.6310  -89.4110  -18.6740 O.3       1 COA        -0.5888
     32 CBP        85.9600  -88.6360  -16.5360 C.3       1 COA        -0.0522
     33 CCP        85.5210  -89.4080  -17.8120 C.3       1 COA         0.1939
     34 CDP        87.4920  -88.7900  -16.2100 C.3       1 COA        -0.0953
     35 CEP        85.6020  -87.2100  -16.9500 C.3       1 COA        -0.0953
     36 CAP        85.1850  -89.1370  -15.2540 C.3       1 COA         0.0936
     37 OAP        85.5020  -88.2660  -14.1280 O.3       1 COA        -0.5925
     38 C9P        83.6680  -89.1660  -15.4160 C.2       1 COA         0.6254
     39 O9P        83.0890  -90.0690  -16.2240 O.2       1 COA        -0.6327
     40 N8P        82.9960  -88.2770  -14.7190 N.am      1 COA        -0.5687
     41 C7P        81.5360  -88.1930  -14.7460 C.3       1 COA         0.1096
     42 C6P        81.0500  -88.2840  -13.2980 C.3       1 COA        -0.1829
     43 C5P        81.4830  -89.5720  -12.6330 C.2       1 COA         0.6618
     44 O5P        81.5080  -90.7220  -13.2480 O.2       1 COA        -0.6108
     45 N4P        81.8280  -89.4210  -11.3700 N.am      1 COA        -0.5833
     46 C3P        82.3050  -90.5540  -10.4610 C.3       1 COA         0.0932
     47 C2P        81.0660  -91.3020  -10.0080 C.3       1 COA        -0.0246
     48 S1P        81.4370  -92.6410   -8.8190 S.3       1 COA        -0.3861
     49 H2A        88.4990  -86.4230  -16.5720 H         1 COA         0.0778
     50 H61A       88.7598  -83.2668  -13.2708 H         1 COA         0.4364
     51 H62A       88.7477  -81.5947  -14.1840 H         1 COA         0.4364
     52 H8A        88.5050  -80.4030  -18.8910 H         1 COA         0.3559
     53 H1B        88.4770  -81.9515  -20.8397 H         1 COA         0.1337
     54 H2B        89.3598  -84.8274  -20.1072 H         1 COA         0.0382
     55 HO2A       91.1454  -83.2437  -20.2324 H         1 COA         0.3815
     56 H3B        88.8713  -85.1623  -22.7140 H         1 COA         0.0900
     57 HOA9       86.8712  -85.3646  -24.4906 H         1 COA         0.4309
     58 H4B        86.2834  -84.3952  -22.3877 H         1 COA         0.1422
     59 H51A       87.2605  -86.0410  -20.1077 H         1 COA         0.0457
     60 H52A       85.5523  -85.7014  -20.5474 H         1 COA         0.0457
     61 HOA5       88.0786  -90.0175  -21.8730 H         1 COA         0.4820
     62 H121       84.6753  -88.9064  -18.3050 H         1 COA         0.0540
     63 H122       85.2421  -90.4441  -17.5697 H         1 COA         0.0540
     64 H131       88.0860  -88.4540  -17.0727 H         1 COA         0.0436
     65 H132       87.7175  -89.8456  -15.9983 H         1 COA         0.0436
     66 H133       87.7432  -88.1780  -15.3311 H         1 COA         0.0436
     67 H141       86.1780  -86.9326  -17.8451 H         1 COA         0.0436
     68 H142       85.8437  -86.5184  -16.1295 H         1 COA         0.0436
     69 H143       84.5265  -87.1522  -17.1735 H         1 COA         0.0436
     70 H10        85.5087  -90.1600  -15.0118 H         1 COA         0.0847
     71 HO1        86.5501  -88.1036  -13.8363 H         1 COA         0.4192
     72 HN8        83.5757  -87.5785  -14.0977 H         1 COA         0.3232
     73 H71        81.2320  -87.2366  -15.1965 H         1 COA         0.0708
     74 H72        81.1319  -89.0242  -15.3425 H         1 COA         0.0708
     75 H61        81.4621  -87.4441  -12.7195 H         1 COA         0.0753
     76 H62        79.9511  -88.2397  -13.2766 H         1 COA         0.0753
     77 HN4        81.7547  -88.3956  -10.9785 H         1 COA         0.3141
     78 H31        82.9779  -91.2173  -11.0242 H         1 COA         0.0684
     79 H32        82.8431  -90.1313   -9.5998 H         1 COA         0.0684
     80 H21        80.3736  -90.6017   -9.5181 H         1 COA         0.0830
     81 H22        80.5724  -91.7559  -10.8800 H         1 COA         0.0830
     82 HS1        80.6217  -93.2588   -8.4145 H         1 COA         0.2070
     83 H83        88.6605  -80.5408  -16.2015 H         1 COA         0.4992
@<TRIPOS>BOND
     1    1    2 ar
     2    1    6 ar
     3    2    3 ar
     4    2   49 1
     5    3    4 ar
     6    4    5 ar
     7    4   10 ar
     8    5    6 ar
     9    5    8 ar
    10    6    7 1
    11    7   50 1
    12    7   51 1
    13    8    9 ar
    14    8   83 1
    15    9   10 ar
    16    9   52 1
    17   10   11 1
    18   11   12 1
    19   11   21 1
    20   11   53 1
    21   12   13 1
    22   12   14 1
    23   12   54 1
    24   13   55 1
    25   14   15 1
    26   14   20 1
    27   14   56 1
    28   15   16 1
    29   16   17 2
    30   16   18 1
    31   16   19 1
    32   19   57 1
    33   20   21 1
    34   20   22 1
    35   20   58 1
    36   22   23 1
    37   22   59 1
    38   22   60 1
    39   23   24 1
    40   24   25 2
    41   24   26 1
    42   24   27 1
    43   27   28 1
    44   28   29 2
    45   28   30 1
    46   28   31 1
    47   30   61 1
    48   31   33 1
    49   32   33 1
    50   32   34 1
    51   32   35 1
    52   32   36 1
    53   33   62 1
    54   33   63 1
    55   34   64 1
    56   34   65 1
    57   34   66 1
    58   35   67 1
    59   35   68 1
    60   35   69 1
    61   36   37 1
    62   36   38 1
    63   36   70 1
    64   37   71 1
    65   38   39 2
    66   38   40 am
    67   40   41 1
    68   40   72 1
    69   41   42 1
    70   41   73 1
    71   41   74 1
    72   42   43 1
    73   42   75 1
    74   42   76 1
    75   43   44 2
    76   43   45 am
    77   45   46 1
    78   45   77 1
    79   46   47 1
    80   46   78 1
    81   46   79 1
    82   47   48 1
    83   47   80 1
    84   47   81 1
    85   48   82 1
@<TRIPOS>SUBSTRUCTURE
     1 COA         1 GROUP   0 A     ****
@<TRIPOS>MOLECULE
[5-(6-amino-1,2-dihydropurin-2-ylium-9-yl)-4-hydroxy-2-[[hydroxy-[hydroxy-[3-hydroxy-2,2-dimethyl-4-oxo-4-[[3-oxo-3-(2-sulfanylethylamino)propyl]amino]butoxy]phosphoryl]oxy-phosphoryl]oxymethyl]tetrahydrofuran-3-yl] hydrogen phosphate
   84    86     1     0     0
SMALL
USER_CHARGES

@<TRIPOS>ATOM
      1 N1A        88.6040  -84.6940  -15.4010 N.pl3     1 COA        -0.6277
      2 C2A        88.5170  -85.3620  -16.6140 C.cat     1 COA         0.2915
      3 N3A        88.4530  -84.8110  -17.8270 N.ar      1 COA        -0.5209
      4 C4A        88.4890  -83.4640  -17.7910 C.ar      1 COA         0.5982
      5 C5A        88.5780  -82.6230  -16.6440 C.ar      1 COA        -0.1742
      6 C6A        88.6370  -83.3150  -15.3450 C.ar      1 COA         0.4880
      7 N6A        88.7190  -82.6940  -14.2090 N.pl3     1 COA        -0.8231
      8 N7A        88.5930  -81.3110  -16.9840 N.ar      1 COA        -0.5346
      9 C8A        88.5140  -81.2930  -18.3130 C.ar      1 COA         0.5808
     10 N9A        88.4440  -82.5690  -18.8600 N.pl3     1 COA        -0.5815
     11 C1B        88.2830  -82.8930  -20.3050 C.3       1 COA         0.3664
     12 C2B        89.1690  -84.0030  -20.8100 C.3       1 COA         0.0880
     13 O2B        90.4930  -83.5370  -21.0680 O.3       1 COA        -0.5139
     14 C3B        88.4470  -84.3520  -22.1030 C.3       1 COA         0.2323
     15 O3B        88.5340  -83.3380  -23.0200 O.3       1 COA        -0.5263
     16 P3B        88.5670  -83.7630  -24.6320 P.3       1 COA         1.4375
     17 O7A        89.7760  -84.7730  -24.8120 O.2       1 COA        -0.8232
     18 O8A        88.8680  -82.4540  -25.4620 O.3       1 COA        -0.8232
     19 O9A        87.1870  -84.4450  -25.0050 O.3       1 COA        -0.7776
     20 C4B        86.9970  -84.4910  -21.5560 C.3       1 COA         0.0978
     21 O4B        86.9570  -83.4610  -20.4760 O.3       1 COA        -0.4175
     22 C5B        86.5780  -85.7930  -20.9340 C.3       1 COA         0.1654
     23 O5B        86.6630  -86.7650  -22.0150 O.3       1 COA        -0.5843
     24 P1A        85.5120  -87.8990  -22.1320 P.3       1 COA         1.8111
     25 O1A        85.9730  -88.8420  -23.2310 O.2       1 COA        -0.8033
     26 O2A        84.1350  -87.3250  -22.2760 O.3       1 COA        -0.8209
     27 O3A        85.5440  -88.6720  -20.8060 O.3       1 COA        -0.8228
     28 P2A        86.5260  -89.8380  -20.2320 P.3       1 COA         1.8038
     29 O4A        85.9410  -91.2220  -20.3870 O.2       1 COA        -0.8424
     30 O5A        87.9130  -89.7660  -20.8150 O.3       1 COA        -0.7969
     31 O6A        86.6310  -89.4110  -18.6740 O.3       1 COA        -0.5871
     32 CBP        85.9600  -88.6360  -16.5360 C.3       1 COA        -0.0663
     33 CCP        85.5210  -89.4080  -17.8120 C.3       1 COA         0.1819
     34 CDP        87.4920  -88.7900  -16.2100 C.3       1 COA        -0.1006
     35 CEP        85.6020  -87.2100  -16.9500 C.3       1 COA        -0.1006
     36 CAP        85.1850  -89.1370  -15.2540 C.3       1 COA         0.0830
     37 OAP        85.5020  -88.2660  -14.1280 O.3       1 COA        -0.6023
     38 C9P        83.6680  -89.1660  -15.4160 C.2       1 COA         0.6350
     39 O9P        83.0890  -90.0690  -16.2240 O.2       1 COA        -0.6189
     40 N8P        82.9960  -88.2770  -14.7190 N.am      1 COA        -0.5650
     41 C7P        81.5360  -88.1930  -14.7460 C.3       1 COA         0.1039
     42 C6P        81.0500  -88.2840  -13.2980 C.3       1 COA        -0.1779
     43 C5P        81.4830  -89.5720  -12.6330 C.2       1 COA         0.6582
     44 O5P        81.5080  -90.7220  -13.2480 O.2       1 COA        -0.6041
     45 N4P        81.8280  -89.4210  -11.3700 N.am      1 COA        -0.5821
     46 C3P        82.3050  -90.5540  -10.4610 C.3       1 COA         0.0939
     47 C2P        81.0660  -91.3020  -10.0080 C.3       1 COA        -0.0258
     48 S1P        81.4370  -92.6410   -8.8190 S.3       1 COA        -0.3823
     49 H2A        88.4990  -86.4230  -16.5720 H         1 COA         0.2376
     50 H61A       88.7598  -83.2668  -13.2708 H         1 COA         0.4801
     51 H62A       88.7477  -81.5947  -14.1840 H         1 COA         0.4801
     52 H8A        88.5050  -80.4030  -18.8910 H         1 COA         0.1287
     53 H1B        88.4770  -81.9515  -20.8397 H         1 COA         0.1362
     54 H2B        89.3598  -84.8274  -20.1072 H         1 COA         0.0318
     55 HO2A       91.1454  -83.2437  -20.2324 H         1 COA         0.3810
     56 H3B        88.8713  -85.1623  -22.7140 H         1 COA         0.0746
     57 HOA9       86.8712  -85.3646  -24.4906 H         1 COA         0.4303
     58 H4B        86.2834  -84.3952  -22.3877 H         1 COA         0.1424
     59 H51A       87.2605  -86.0410  -20.1077 H         1 COA         0.0595
     60 H52A       85.5523  -85.7014  -20.5474 H         1 COA         0.0595
     61 HOA2       83.8791  -86.7250  -23.1617 H         1 COA         0.4987
     62 HOA5       88.0786  -90.0175  -21.8730 H         1 COA         0.4968
     63 H121       84.6753  -88.9064  -18.3050 H         1 COA         0.0615
     64 H122       85.2421  -90.4441  -17.5697 H         1 COA         0.0615
     65 H131       88.0860  -88.4540  -17.0727 H         1 COA         0.0532
     66 H132       87.7175  -89.8456  -15.9983 H         1 COA         0.0532
     67 H133       87.7432  -88.1780  -15.3311 H         1 COA         0.0532
     68 H141       86.1780  -86.9326  -17.8451 H         1 COA         0.0532
     69 H142       85.8437  -86.5184  -16.1295 H         1 COA         0.0532
     70 H143       84.5265  -87.1522  -17.1735 H         1 COA         0.0532
     71 H10        85.5087  -90.1600  -15.0118 H         1 COA         0.0875
     72 HO1        86.5501  -88.1036  -13.8363 H         1 COA         0.4304
     73 HN8        83.5757  -87.5785  -14.0977 H         1 COA         0.3180
     74 H71        81.2320  -87.2366  -15.1965 H         1 COA         0.0784
     75 H72        81.1319  -89.0242  -15.3425 H         1 COA         0.0784
     76 H61        81.4621  -87.4441  -12.7195 H         1 COA         0.0711
     77 H62        79.9511  -88.2397  -13.2766 H         1 COA         0.0711
     78 HN4        81.7547  -88.3956  -10.9785 H         1 COA         0.3130
     79 H31        82.9779  -91.2173  -11.0242 H         1 COA         0.0700
     80 H32        82.8431  -90.1313   -9.5998 H         1 COA         0.0700
     81 H21        80.3736  -90.6017   -9.5181 H         1 COA         0.0856
     82 H22        80.5724  -91.7559  -10.8800 H         1 COA         0.0856
     83 HS1        80.6217  -93.2588   -8.4145 H         1 COA         0.2028
     84 H84        88.6480  -85.2639  -14.4612 H         1 COA         0.4695
@<TRIPOS>BOND
     1    1    2 ar
     2    1    6 ar
     3    1   84 1
     4    2    3 ar
     5    2   49 1
     6    3    4 ar
     7    4    5 ar
     8    4   10 ar
     9    5    6 ar
    10    5    8 ar
    11    6    7 1
    12    7   50 1
    13    7   51 1
    14    8    9 ar
    15    9   10 ar
    16    9   52 1
    17   10   11 1
    18   11   12 1
    19   11   21 1
    20   11   53 1
    21   12   13 1
    22   12   14 1
    23   12   54 1
    24   13   55 1
    25   14   15 1
    26   14   20 1
    27   14   56 1
    28   15   16 1
    29   16   17 2
    30   16   18 1
    31   16   19 1
    32   19   57 1
    33   20   21 1
    34   20   22 1
    35   20   58 1
    36   22   23 1
    37   22   59 1
    38   22   60 1
    39   23   24 1
    40   24   25 2
    41   24   26 1
    42   24   27 1
    43   26   61 1
    44   27   28 1
    45   28   29 2
    46   28   30 1
    47   28   31 1
    48   30   62 1
    49   31   33 1
    50   32   33 1
    51   32   34 1
    52   32   35 1
    53   32   36 1
    54   33   63 1
    55   33   64 1
    56   34   65 1
    57   34   66 1
    58   34   67 1
    59   35   68 1
    60   35   69 1
    61   35   70 1
    62   36   37 1
    63   36   38 1
    64   36   71 1
    65   37   72 1
    66   38   39 2
    67   38   40 am
    68   40   41 1
    69   40   73 1
    70   41   42 1
    71   41   74 1
    72   41   75 1
    73   42   43 1
    74   42   76 1
    75   42   77 1
    76   43   44 2
    77   43   45 am
    78   45   46 1
    79   45   78 1
    80   46   47 1
    81   46   79 1
    82   46   80 1
    83   47   48 1
    84   47   81 1
    85   47   82 1
    86   48   83 1
@<TRIPOS>SUBSTRUCTURE
     1 COA         1 GROUP   0 A     ****
@<TRIPOS>MOLECULE
[[5-(6-amino-1,2-dihydropurin-2-ylium-9-yl)-4-hydroxy-3-phosphonooxy-tetrahydrofuran-2-yl]methoxy-hydroxy-phosphoryl] [3-hydroxy-2,2-dimethyl-4-oxo-4-[[3-oxo-3-(2-sulfanylethylamino)propyl]amino]butyl] phosphate
   84    86     1     0     0
SMALL
USER_CHARGES

@<TRIPOS>ATOM
      1 N1A        88.6040  -84.6940  -15.4010 N.pl3     1 COA        -0.6269
      2 C2A        88.5170  -85.3620  -16.6140 C.cat     1 COA         0.2913
      3 N3A        88.4530  -84.8110  -17.8270 N.ar      1 COA        -0.5210
      4 C4A        88.4890  -83.4640  -17.7910 C.ar      1 COA         0.6126
      5 C5A        88.5780  -82.6230  -16.6440 C.ar      1 COA        -0.1674
      6 C6A        88.6370  -83.3150  -15.3450 C.ar      1 COA         0.4883
      7 N6A        88.7190  -82.6940  -14.2090 N.pl3     1 COA        -0.8186
      8 N7A        88.5930  -81.3110  -16.9840 N.ar      1 COA        -0.5293
      9 C8A        88.5140  -81.2930  -18.3130 C.ar      1 COA         0.5900
     10 N9A        88.4440  -82.5690  -18.8600 N.pl3     1 COA        -0.5946
     11 C1B        88.2830  -82.8930  -20.3050 C.3       1 COA         0.4061
     12 C2B        89.1690  -84.0030  -20.8100 C.3       1 COA         0.1110
     13 O2B        90.4930  -83.5370  -21.0680 O.3       1 COA        -0.5802
     14 C3B        88.4470  -84.3520  -22.1030 C.3       1 COA         0.1409
     15 O3B        88.5340  -83.3380  -23.0200 O.3       1 COA        -0.5860
     16 P3B        88.5670  -83.7630  -24.6320 P.3       1 COA         1.6465
     17 O7A        89.7760  -84.7730  -24.8120 O.2       1 COA        -0.7868
     18 O8A        88.8680  -82.4540  -25.4620 O.3       1 COA        -0.7643
     19 O9A        87.1870  -84.4450  -25.0050 O.3       1 COA        -0.7643
     20 C4B        86.9970  -84.4910  -21.5560 C.3       1 COA         0.0982
     21 O4B        86.9570  -83.4610  -20.4760 O.3       1 COA        -0.3928
     22 C5B        86.5780  -85.7930  -20.9340 C.3       1 COA         0.1779
     23 O5B        86.6630  -86.7650  -22.0150 O.3       1 COA        -0.5686
     24 P1A        85.5120  -87.8990  -22.1320 P.3       1 COA         1.7875
     25 O1A        85.9730  -88.8420  -23.2310 O.2       1 COA        -0.8435
     26 O2A        84.1350  -87.3250  -22.2760 O.3       1 COA        -0.8261
     27 O3A        85.5440  -88.6720  -20.8060 O.3       1 COA        -0.7896
     28 P2A        86.5260  -89.8380  -20.2320 P.3       1 COA         1.5552
     29 O4A        85.9410  -91.2220  -20.3870 O.2       1 COA        -0.8141
     30 O5A        87.9130  -89.7660  -20.8150 O.3       1 COA        -0.8141
     31 O6A        86.6310  -89.4110  -18.6740 O.3       1 COA        -0.5857
     32 CBP        85.9600  -88.6360  -16.5360 C.3       1 COA        -0.0806
     33 CCP        85.5210  -89.4080  -17.8120 C.3       1 COA         0.1877
     34 CDP        87.4920  -88.7900  -16.2100 C.3       1 COA        -0.0826
     35 CEP        85.6020  -87.2100  -16.9500 C.3       1 COA        -0.0826
     36 CAP        85.1850  -89.1370  -15.2540 C.3       1 COA         0.0839
     37 OAP        85.5020  -88.2660  -14.1280 O.3       1 COA        -0.5941
     38 C9P        83.6680  -89.1660  -15.4160 C.2       1 COA         0.6274
     39 O9P        83.0890  -90.0690  -16.2240 O.2       1 COA        -0.6392
     40 N8P        82.9960  -88.2770  -14.7190 N.am      1 COA        -0.5625
     41 C7P        81.5360  -88.1930  -14.7460 C.3       1 COA         0.1067
     42 C6P        81.0500  -88.2840  -13.2980 C.3       1 COA        -0.1812
     43 C5P        81.4830  -89.5720  -12.6330 C.2       1 COA         0.6640
     44 O5P        81.5080  -90.7220  -13.2480 O.2       1 COA        -0.6036
     45 N4P        81.8280  -89.4210  -11.3700 N.am      1 COA        -0.5815
     46 C3P        82.3050  -90.5540  -10.4610 C.3       1 COA         0.0932
     47 C2P        81.0660  -91.3020  -10.0080 C.3       1 COA        -0.0281
     48 S1P        81.4370  -92.6410   -8.8190 S.3       1 COA        -0.3763
     49 H2A        88.4990  -86.4230  -16.5720 H         1 COA         0.2327
     50 H61A       88.7598  -83.2668  -13.2708 H         1 COA         0.4822
     51 H62A       88.7477  -81.5947  -14.1840 H         1 COA         0.4822
     52 H8A        88.5050  -80.4030  -18.8910 H         1 COA         0.1508
     53 H1B        88.4770  -81.9515  -20.8397 H         1 COA         0.1231
     54 H2B        89.3598  -84.8274  -20.1072 H         1 COA         0.0773
     55 HO2A       91.1454  -83.2437  -20.2324 H         1 COA         0.4355
     56 H3B        88.8713  -85.1623  -22.7140 H         1 COA         0.0895
     57 HOA8       89.7991  -81.8946  -25.2883 H         1 COA         0.4958
     58 HOA9       86.8712  -85.3646  -24.4906 H         1 COA         0.4958
     59 H4B        86.2834  -84.3952  -22.3877 H         1 COA         0.1393
     60 H51A       87.2605  -86.0410  -20.1077 H         1 COA         0.0540
     61 H52A       85.5523  -85.7014  -20.5474 H         1 COA         0.0540
     62 HOA2       83.8791  -86.7250  -23.1617 H         1 COA         0.4722
     63 H121       84.6753  -88.9064  -18.3050 H         1 COA         0.0330
     64 H122       85.2421  -90.4441  -17.5697 H         1 COA         0.0330
     65 H131       88.0860  -88.4540  -17.0727 H         1 COA         0.0403
     66 H132       87.7175  -89.8456  -15.9983 H         1 COA         0.0403
     67 H133       87.7432  -88.1780  -15.3311 H         1 COA         0.0403
     68 H141       86.1780  -86.9326  -17.8451 H         1 COA         0.0403
     69 H142       85.8437  -86.5184  -16.1295 H         1 COA         0.0403
     70 H143       84.5265  -87.1522  -17.1735 H         1 COA         0.0403
     71 H10        85.5087  -90.1600  -15.0118 H         1 COA         0.0864
     72 HO1        86.5501  -88.1036  -13.8363 H         1 COA         0.4222
     73 HN8        83.5757  -87.5785  -14.0977 H         1 COA         0.3361
     74 H71        81.2320  -87.2366  -15.1965 H         1 COA         0.0765
     75 H72        81.1319  -89.0242  -15.3425 H         1 COA         0.0765
     76 H61        81.4621  -87.4441  -12.7195 H         1 COA         0.0740
     77 H62        79.9511  -88.2397  -13.2766 H         1 COA         0.0740
     78 HN4        81.7547  -88.3956  -10.9785 H         1 COA         0.3071
     79 H31        82.9779  -91.2173  -11.0242 H         1 COA         0.0662
     80 H32        82.8431  -90.1313   -9.5998 H         1 COA         0.0662
     81 H21        80.3736  -90.6017   -9.5181 H         1 COA         0.0804
     82 H22        80.5724  -91.7559  -10.8800 H         1 COA         0.0804
     83 HS1        80.6217  -93.2588   -8.4145 H         1 COA         0.2071
     84 H84        88.6480  -85.2639  -14.4612 H         1 COA         0.4723
@<TRIPOS>BOND
     1    1    2 ar
     2    1    6 ar
     3    1   84 1
     4    2    3 ar
     5    2   49 1
     6    3    4 ar
     7    4    5 ar
     8    4   10 ar
     9    5    6 ar
    10    5    8 ar
    11    6    7 1
    12    7   50 1
    13    7   51 1
    14    8    9 ar
    15    9   10 ar
    16    9   52 1
    17   10   11 1
    18   11   12 1
    19   11   21 1
    20   11   53 1
    21   12   13 1
    22   12   14 1
    23   12   54 1
    24   13   55 1
    25   14   15 1
    26   14   20 1
    27   14   56 1
    28   15   16 1
    29   16   17 2
    30   16   18 1
    31   16   19 1
    32   18   57 1
    33   19   58 1
    34   20   21 1
    35   20   22 1
    36   20   59 1
    37   22   23 1
    38   22   60 1
    39   22   61 1
    40   23   24 1
    41   24   25 2
    42   24   26 1
    43   24   27 1
    44   26   62 1
    45   27   28 1
    46   28   29 2
    47   28   30 1
    48   28   31 1
    49   31   33 1
    50   32   33 1
    51   32   34 1
    52   32   35 1
    53   32   36 1
    54   33   63 1
    55   33   64 1
    56   34   65 1
    57   34   66 1
    58   34   67 1
    59   35   68 1
    60   35   69 1
    61   35   70 1
    62   36   37 1
    63   36   38 1
    64   36   71 1
    65   37   72 1
    66   38   39 2
    67   38   40 am
    68   40   41 1
    69   40   73 1
    70   41   42 1
    71   41   74 1
    72   41   75 1
    73   42   43 1
    74   42   76 1
    75   42   77 1
    76   43   44 2
    77   43   45 am
    78   45   46 1
    79   45   78 1
    80   46   47 1
    81   46   79 1
    82   46   80 1
    83   47   48 1
    84   47   81 1
    85   47   82 1
    86   48   83 1
@<TRIPOS>SUBSTRUCTURE
     1 COA         1 GROUP   0 A     ****
@<TRIPOS>MOLECULE
[5-(6-amino-7,8-dihydropurin-8-ylium-9-yl)-4-hydroxy-2-[[hydroxy-[[3-hydroxy-2,2-dimethyl-4-oxo-4-[[3-oxo-3-(2-sulfanylethylamino)propyl]amino]butoxy]-oxido-phosphoryl]oxy-phosphoryl]oxymethyl]tetrahydrofuran-3-yl] hydrogen phosphate
   83    85     1     0     0
SMALL
USER_CHARGES

@<TRIPOS>ATOM
      1 N1A        88.6040  -84.6940  -15.4010 N.ar      1 COA        -0.7492
      2 C2A        88.5170  -85.3620  -16.6140 C.ar      1 COA         0.6988
      3 N3A        88.4530  -84.8110  -17.8270 N.ar      1 COA        -0.6710
      4 C4A        88.4890  -83.4640  -17.7910 C.ar      1 COA         0.6137
      5 C5A        88.5780  -82.6230  -16.6440 C.ar      1 COA        -0.2545
      6 C6A        88.6370  -83.3150  -15.3450 C.ar      1 COA         0.7327
      7 N6A        88.7190  -82.6940  -14.2090 N.pl3     1 COA        -0.9304
      8 N7A        88.5930  -81.3110  -16.9840 N.pl3     1 COA        -0.5251
      9 C8A        88.5140  -81.2930  -18.3130 C.cat     1 COA         0.3065
     10 N9A        88.4440  -82.5690  -18.8600 N.pl3     1 COA        -0.5481
     11 C1B        88.2830  -82.8930  -20.3050 C.3       1 COA         0.3686
     12 C2B        89.1690  -84.0030  -20.8100 C.3       1 COA         0.0883
     13 O2B        90.4930  -83.5370  -21.0680 O.3       1 COA        -0.5186
     14 C3B        88.4470  -84.3520  -22.1030 C.3       1 COA         0.2233
     15 O3B        88.5340  -83.3380  -23.0200 O.3       1 COA        -0.5441
     16 P3B        88.5670  -83.7630  -24.6320 P.3       1 COA         1.4263
     17 O7A        89.7760  -84.7730  -24.8120 O.2       1 COA        -0.8181
     18 O8A        88.8680  -82.4540  -25.4620 O.3       1 COA        -0.8181
     19 O9A        87.1870  -84.4450  -25.0050 O.3       1 COA        -0.7785
     20 C4B        86.9970  -84.4910  -21.5560 C.3       1 COA         0.1001
     21 O4B        86.9570  -83.4610  -20.4760 O.3       1 COA        -0.4114
     22 C5B        86.5780  -85.7930  -20.9340 C.3       1 COA         0.1704
     23 O5B        86.6630  -86.7650  -22.0150 O.3       1 COA        -0.5908
     24 P1A        85.5120  -87.8990  -22.1320 P.3       1 COA         1.7783
     25 O1A        85.9730  -88.8420  -23.2310 O.2       1 COA        -0.8416
     26 O2A        84.1350  -87.3250  -22.2760 O.3       1 COA        -0.8365
     27 O3A        85.5440  -88.6720  -20.8060 O.3       1 COA        -0.8040
     28 P2A        86.5260  -89.8380  -20.2320 P.3       1 COA         1.5571
     29 O4A        85.9410  -91.2220  -20.3870 O.2       1 COA        -0.8261
     30 O5A        87.9130  -89.7660  -20.8150 O.3       1 COA        -0.8261
     31 O6A        86.6310  -89.4110  -18.6740 O.3       1 COA        -0.5743
     32 CBP        85.9600  -88.6360  -16.5360 C.3       1 COA        -0.0506
     33 CCP        85.5210  -89.4080  -17.8120 C.3       1 COA         0.1816
     34 CDP        87.4920  -88.7900  -16.2100 C.3       1 COA        -0.0811
     35 CEP        85.6020  -87.2100  -16.9500 C.3       1 COA        -0.0811
     36 CAP        85.1850  -89.1370  -15.2540 C.3       1 COA         0.0891
     37 OAP        85.5020  -88.2660  -14.1280 O.3       1 COA        -0.5877
     38 C9P        83.6680  -89.1660  -15.4160 C.2       1 COA         0.6236
     39 O9P        83.0890  -90.0690  -16.2240 O.2       1 COA        -0.6467
     40 N8P        82.9960  -88.2770  -14.7190 N.am      1 COA        -0.5641
     41 C7P        81.5360  -88.1930  -14.7460 C.3       1 COA         0.1121
     42 C6P        81.0500  -88.2840  -13.2980 C.3       1 COA        -0.1795
     43 C5P        81.4830  -89.5720  -12.6330 C.2       1 COA         0.6645
     44 O5P        81.5080  -90.7220  -13.2480 O.2       1 COA        -0.6079
     45 N4P        81.8280  -89.4210  -11.3700 N.am      1 COA        -0.5841
     46 C3P        82.3050  -90.5540  -10.4610 C.3       1 COA         0.0939
     47 C2P        81.0660  -91.3020  -10.0080 C.3       1 COA        -0.0257
     48 S1P        81.4370  -92.6410   -8.8190 S.3       1 COA        -0.3829
     49 H2A        88.4990  -86.4230  -16.5720 H         1 COA         0.0808
     50 H61A       88.7598  -83.2668  -13.2708 H         1 COA         0.4350
     51 H62A       88.7477  -81.5947  -14.1840 H         1 COA         0.4350
     52 H8A        88.5050  -80.4030  -18.8910 H         1 COA         0.3035
     53 H1B        88.4770  -81.9515  -20.8397 H         1 COA         0.1410
     54 H2B        89.3598  -84.8274  -20.1072 H         1 COA         0.0368
     55 HO2A       91.1454  -83.2437  -20.2324 H         1 COA         0.3824
     56 H3B        88.8713  -85.1623  -22.7140 H         1 COA         0.1076
     57 HOA9       86.8712  -85.3646  -24.4906 H         1 COA         0.4338
     58 H4B        86.2834  -84.3952  -22.3877 H         1 COA         0.1323
     59 H51A       87.2605  -86.0410  -20.1077 H         1 COA         0.0535
     60 H52A       85.5523  -85.7014  -20.5474 H         1 COA         0.0535
     61 HOA2       83.8791  -86.7250  -23.1617 H         1 COA         0.4869
     62 H121       84.6753  -88.9064  -18.3050 H         1 COA         0.0274
     63 H122       85.2421  -90.4441  -17.5697 H         1 COA         0.0274
     64 H131       88.0860  -88.4540  -17.0727 H         1 COA         0.0459
     65 H132       87.7175  -89.8456  -15.9983 H         1 COA         0.0459
     66 H133       87.7432  -88.1780  -15.3311 H         1 COA         0.0459
     67 H141       86.1780  -86.9326  -17.8451 H         1 COA         0.0459
     68 H142       85.8437  -86.5184  -16.1295 H         1 COA         0.0459
     69 H143       84.5265  -87.1522  -17.1735 H         1 COA         0.0459
     70 H10        85.5087  -90.1600  -15.0118 H         1 COA         0.0614
     71 HO1        86.5501  -88.1036  -13.8363 H         1 COA         0.4138
     72 HN8        83.5757  -87.5785  -14.0977 H         1 COA         0.3381
     73 H71        81.2320  -87.2366  -15.1965 H         1 COA         0.0723
     74 H72        81.1319  -89.0242  -15.3425 H         1 COA         0.0723
     75 H61        81.4621  -87.4441  -12.7195 H         1 COA         0.0755
     76 H62        79.9511  -88.2397  -13.2766 H         1 COA         0.0755
     77 HN4        81.7547  -88.3956  -10.9785 H         1 COA         0.3076
     78 H31        82.9779  -91.2173  -11.0242 H         1 COA         0.0653
     79 H32        82.8431  -90.1313   -9.5998 H         1 COA         0.0653
     80 H21        80.3736  -90.6017   -9.5181 H         1 COA         0.0802
     81 H22        80.5724  -91.7559  -10.8800 H         1 COA         0.0802
     82 HS1        80.6217  -93.2588   -8.4145 H         1 COA         0.2068
     83 H83        88.6605  -80.5408  -16.2015 H         1 COA         0.5027
@<TRIPOS>BOND
     1    1    2 ar
     2    1    6 ar
     3    2    3 ar
     4    2   49 1
     5    3    4 ar
     6    4    5 ar
     7    4   10 ar
     8    5    6 ar
     9    5    8 ar
    10    6    7 1
    11    7   50 1
    12    7   51 1
    13    8    9 ar
    14    8   83 1
    15    9   10 ar
    16    9   52 1
    17   10   11 1
    18   11   12 1
    19   11   21 1
    20   11   53 1
    21   12   13 1
    22   12   14 1
    23   12   54 1
    24   13   55 1
    25   14   15 1
    26   14   20 1
    27   14   56 1
    28   15   16 1
    29   16   17 2
    30   16   18 1
    31   16   19 1
    32   19   57 1
    33   20   21 1
    34   20   22 1
    35   20   58 1
    36   22   23 1
    37   22   59 1
    38   22   60 1
    39   23   24 1
    40   24   25 2
    41   24   26 1
    42   24   27 1
    43   26   61 1
    44   27   28 1
    45   28   29 2
    46   28   30 1
    47   28   31 1
    48   31   33 1
    49   32   33 1
    50   32   34 1
    51   32   35 1
    52   32   36 1
    53   33   62 1
    54   33   63 1
    55   34   64 1
    56   34   65 1
    57   34   66 1
    58   35   67 1
    59   35   68 1
    60   35   69 1
    61   36   37 1
    62   36   38 1
    63   36   70 1
    64   37   71 1
    65   38   39 2
    66   38   40 am
    67   40   41 1
    68   40   72 1
    69   41   42 1
    70   41   73 1
    71   41   74 1
    72   42   43 1
    73   42   75 1
    74   42   76 1
    75   43   44 2
    76   43   45 am
    77   45   46 1
    78   45   77 1
    79   46   47 1
    80   46   78 1
    81   46   79 1
    82   47   48 1
    83   47   80 1
    84   47   81 1
    85   48   82 1
@<TRIPOS>SUBSTRUCTURE
     1 COA         1 GROUP   0 A     ****
@<TRIPOS>MOLECULE
[[5-(6-amino-7,8-dihydropurin-8-ylium-9-yl)-4-hydroxy-3-phosphonooxy-tetrahydrofuran-2-yl]methoxy-oxido-phosphoryl] [3-hydroxy-2,2-dimethyl-4-oxo-4-[[3-oxo-3-(2-sulfanylethylamino)propyl]amino]butyl] phosphate
   83    85     1     0     0
SMALL
USER_CHARGES

@<TRIPOS>ATOM
      1 N1A        88.6040  -84.6940  -15.4010 N.ar      1 COA        -0.7484
      2 C2A        88.5170  -85.3620  -16.6140 C.ar      1 COA         0.6965
      3 N3A        88.4530  -84.8110  -17.8270 N.ar      1 COA        -0.6896
      4 C4A        88.4890  -83.4640  -17.7910 C.ar      1 COA         0.6316
      5 C5A        88.5780  -82.6230  -16.6440 C.ar      1 COA        -0.2705
      6 C6A        88.6370  -83.3150  -15.3450 C.ar      1 COA         0.7465
      7 N6A        88.7190  -82.6940  -14.2090 N.pl3     1 COA        -0.9458
      8 N7A        88.5930  -81.3110  -16.9840 N.pl3     1 COA        -0.5246
      9 C8A        88.5140  -81.2930  -18.3130 C.cat     1 COA         0.3232
     10 N9A        88.4440  -82.5690  -18.8600 N.pl3     1 COA        -0.5849
     11 C1B        88.2830  -82.8930  -20.3050 C.3       1 COA         0.3820
     12 C2B        89.1690  -84.0030  -20.8100 C.3       1 COA         0.1013
     13 O2B        90.4930  -83.5370  -21.0680 O.3       1 COA        -0.5565
     14 C3B        88.4470  -84.3520  -22.1030 C.3       1 COA         0.1777
     15 O3B        88.5340  -83.3380  -23.0200 O.3       1 COA        -0.5794
     16 P3B        88.5670  -83.7630  -24.6320 P.3       1 COA         1.6408
     17 O7A        89.7760  -84.7730  -24.8120 O.2       1 COA        -0.7858
     18 O8A        88.8680  -82.4540  -25.4620 O.3       1 COA        -0.7610
     19 O9A        87.1870  -84.4450  -25.0050 O.3       1 COA        -0.7610
     20 C4B        86.9970  -84.4910  -21.5560 C.3       1 COA         0.0843
     21 O4B        86.9570  -83.4610  -20.4760 O.3       1 COA        -0.3655
     22 C5B        86.5780  -85.7930  -20.9340 C.3       1 COA         0.1840
     23 O5B        86.6630  -86.7650  -22.0150 O.3       1 COA        -0.5555
     24 P1A        85.5120  -87.8990  -22.1320 P.3       1 COA         1.6253
     25 O1A        85.9730  -88.8420  -23.2310 O.2       1 COA        -0.8893
     26 O2A        84.1350  -87.3250  -22.2760 O.3       1 COA        -0.8893
     27 O3A        85.5440  -88.6720  -20.8060 O.3       1 COA        -0.8171
     28 P2A        86.5260  -89.8380  -20.2320 P.3       1 COA         1.5930
     29 O4A        85.9410  -91.2220  -20.3870 O.2       1 COA        -0.8531
     30 O5A        87.9130  -89.7660  -20.8150 O.3       1 COA        -0.8531
     31 O6A        86.6310  -89.4110  -18.6740 O.3       1 COA        -0.5862
     32 CBP        85.9600  -88.6360  -16.5360 C.3       1 COA        -0.0879
     33 CCP        85.5210  -89.4080  -17.8120 C.3       1 COA         0.2024
     34 CDP        87.4920  -88.7900  -16.2100 C.3       1 COA        -0.0837
     35 CEP        85.6020  -87.2100  -16.9500 C.3       1 COA        -0.0837
     36 CAP        85.1850  -89.1370  -15.2540 C.3       1 COA         0.0902
     37 OAP        85.5020  -88.2660  -14.1280 O.3       1 COA        -0.6051
     38 C9P        83.6680  -89.1660  -15.4160 C.2       1 COA         0.6232
     39 O9P        83.0890  -90.0690  -16.2240 O.2       1 COA        -0.6892
     40 N8P        82.9960  -88.2770  -14.7190 N.am      1 COA        -0.5467
     41 C7P        81.5360  -88.1930  -14.7460 C.3       1 COA         0.1091
     42 C6P        81.0500  -88.2840  -13.2980 C.3       1 COA        -0.1744
     43 C5P        81.4830  -89.5720  -12.6330 C.2       1 COA         0.6603
     44 O5P        81.5080  -90.7220  -13.2480 O.2       1 COA        -0.6100
     45 N4P        81.8280  -89.4210  -11.3700 N.am      1 COA        -0.5914
     46 C3P        82.3050  -90.5540  -10.4610 C.3       1 COA         0.0952
     47 C2P        81.0660  -91.3020  -10.0080 C.3       1 COA        -0.0195
     48 S1P        81.4370  -92.6410   -8.8190 S.3       1 COA        -0.4073
     49 H2A        88.4990  -86.4230  -16.5720 H         1 COA         0.0715
     50 H61A       88.7598  -83.2668  -13.2708 H         1 COA         0.4442
     51 H62A       88.7477  -81.5947  -14.1840 H         1 COA         0.4442
     52 H8A        88.5050  -80.4030  -18.8910 H         1 COA         0.3722
     53 H1B        88.4770  -81.9515  -20.8397 H         1 COA         0.1277
     54 H2B        89.3598  -84.8274  -20.1072 H         1 COA         0.0684
     55 HO2A       91.1454  -83.2437  -20.2324 H         1 COA         0.4014
     56 H3B        88.8713  -85.1623  -22.7140 H         1 COA         0.0802
     57 HOA8       89.7991  -81.8946  -25.2883 H         1 COA         0.4874
     58 HOA9       86.8712  -85.3646  -24.4906 H         1 COA         0.4874
     59 H4B        86.2834  -84.3952  -22.3877 H         1 COA         0.1286
     60 H51A       87.2605  -86.0410  -20.1077 H         1 COA         0.0344
     61 H52A       85.5523  -85.7014  -20.5474 H         1 COA         0.0344
     62 H121       84.6753  -88.9064  -18.3050 H         1 COA         0.0202
     63 H122       85.2421  -90.4441  -17.5697 H         1 COA         0.0202
     64 H131       88.0860  -88.4540  -17.0727 H         1 COA         0.0345
     65 H132       87.7175  -89.8456  -15.9983 H         1 COA         0.0345
     66 H133       87.7432  -88.1780  -15.3311 H         1 COA         0.0345
     67 H141       86.1780  -86.9326  -17.8451 H         1 COA         0.0345
     68 H142       85.8437  -86.5184  -16.1295 H         1 COA         0.0345
     69 H143       84.5265  -87.1522  -17.1735 H         1 COA         0.0345
     70 H10        85.5087  -90.1600  -15.0118 H         1 COA         0.1140
     71 HO1        86.5501  -88.1036  -13.8363 H         1 COA         0.4100
     72 HN8        83.5757  -87.5785  -14.0977 H         1 COA         0.3926
     73 H71        81.2320  -87.2366  -15.1965 H         1 COA         0.0690
     74 H72        81.1319  -89.0242  -15.3425 H         1 COA         0.0690
     75 H61        81.4621  -87.4441  -12.7195 H         1 COA         0.0753
     76 H62        79.9511  -88.2397  -13.2766 H         1 COA         0.0753
     77 HN4        81.7547  -88.3956  -10.9785 H         1 COA         0.3079
     78 H31        82.9779  -91.2173  -11.0242 H         1 COA         0.0638
     79 H32        82.8431  -90.1313   -9.5998 H         1 COA         0.0638
     80 H21        80.3736  -90.6017   -9.5181 H         1 COA         0.0824
     81 H22        80.5724  -91.7559  -10.8800 H         1 COA         0.0824
     82 HS1        80.6217  -93.2588   -8.4145 H         1 COA         0.2133
     83 H83        88.6605  -80.5408  -16.2015 H         1 COA         0.5005
@<TRIPOS>BOND
     1    1    2 ar
     2    1    6 ar
     3    2    3 ar
     4    2   49 1
     5    3    4 ar
     6    4    5 ar
     7    4   10 ar
     8    5    6 ar
     9    5    8 ar
    10    6    7 1
    11    7   50 1
    12    7   51 1
    13    8    9 ar
    14    8   83 1
    15    9   10 ar
    16    9   52 1
    17   10   11 1
    18   11   12 1
    19   11   21 1
    20   11   53 1
    21   12   13 1
    22   12   14 1
    23   12   54 1
    24   13   55 1
    25   14   15 1
    26   14   20 1
    27   14   56 1
    28   15   16 1
    29   16   17 2
    30   16   18 1
    31   16   19 1
    32   18   57 1
    33   19   58 1
    34   20   21 1
    35   20   22 1
    36   20   59 1
    37   22   23 1
    38   22   60 1
    39   22   61 1
    40   23   24 1
    41   24   25 2
    42   24   26 1
    43   24   27 1
    44   27   28 1
    45   28   29 2
    46   28   30 1
    47   28   31 1
    48   31   33 1
    49   32   33 1
    50   32   34 1
    51   32   35 1
    52   32   36 1
    53   33   62 1
    54   33   63 1
    55   34   64 1
    56   34   65 1
    57   34   66 1
    58   35   67 1
    59   35   68 1
    60   35   69 1
    61   36   37 1
    62   36   38 1
    63   36   70 1
    64   37   71 1
    65   38   39 2
    66   38   40 am
    67   40   41 1
    68   40   72 1
    69   41   42 1
    70   41   73 1
    71   41   74 1
    72   42   43 1
    73   42   75 1
    74   42   76 1
    75   43   44 2
    76   43   45 am
    77   45   46 1
    78   45   77 1
    79   46   47 1
    80   46   78 1
    81   46   79 1
    82   47   48 1
    83   47   80 1
    84   47   81 1
    85   48   82 1
@<TRIPOS>SUBSTRUCTURE
     1 COA         1 GROUP   0 A     ****
@<TRIPOS>MOLECULE
[[5-(6-aminopurin-9-yl)-4-hydroxy-3-phosphonooxy-tetrahydrofuran-2-yl]methoxy-hydroxy-phosphoryl] [3-hydroxy-2,2-dimethyl-4-oxo-4-[[3-oxo-3-(2-sulfanylethylamino)propyl]amino]butyl] hydrogen phosphate
   84    86     1     0     0
SMALL
USER_CHARGES

@<TRIPOS>ATOM
      1 N1A        88.6040  -84.6940  -15.4010 N.ar      1 COA        -0.8034
      2 C2A        88.5170  -85.3620  -16.6140 C.ar      1 COA         0.6945
      3 N3A        88.4530  -84.8110  -17.8270 N.ar      1 COA        -0.7409
      4 C4A        88.4890  -83.4640  -17.7910 C.ar      1 COA         0.5959
      5 C5A        88.5780  -82.6230  -16.6440 C.ar      1 COA        -0.2313
      6 C6A        88.6370  -83.3150  -15.3450 C.ar      1 COA         0.7689
      7 N6A        88.7190  -82.6940  -14.2090 N.pl3     1 COA        -0.9621
      8 N7A        88.5930  -81.3110  -16.9840 N.ar      1 COA        -0.5406
      9 C8A        88.5140  -81.2930  -18.3130 C.ar      1 COA         0.5388
     10 N9A        88.4440  -82.5690  -18.8600 N.pl3     1 COA        -0.7035
     11 C1B        88.2830  -82.8930  -20.3050 C.3       1 COA         0.3988
     12 C2B        89.1690  -84.0030  -20.8100 C.3       1 COA         0.1169
     13 O2B        90.4930  -83.5370  -21.0680 O.3       1 COA        -0.5526
     14 C3B        88.4470  -84.3520  -22.1030 C.3       1 COA         0.1308
     15 O3B        88.5340  -83.3380  -23.0200 O.3       1 COA        -0.5780
     16 P3B        88.5670  -83.7630  -24.6320 P.3       1 COA         1.6558
     17 O7A        89.7760  -84.7730  -24.8120 O.2       1 COA        -0.8190
     18 O8A        88.8680  -82.4540  -25.4620 O.3       1 COA        -0.7620
     19 O9A        87.1870  -84.4450  -25.0050 O.3       1 COA        -0.7620
     20 C4B        86.9970  -84.4910  -21.5560 C.3       1 COA         0.0974
     21 O4B        86.9570  -83.4610  -20.4760 O.3       1 COA        -0.4025
     22 C5B        86.5780  -85.7930  -20.9340 C.3       1 COA         0.1640
     23 O5B        86.6630  -86.7650  -22.0150 O.3       1 COA        -0.5656
     24 P1A        85.5120  -87.8990  -22.1320 P.3       1 COA         1.8004
     25 O1A        85.9730  -88.8420  -23.2310 O.2       1 COA        -0.8158
     26 O2A        84.1350  -87.3250  -22.2760 O.3       1 COA        -0.8108
     27 O3A        85.5440  -88.6720  -20.8060 O.3       1 COA        -0.8239
     28 P2A        86.5260  -89.8380  -20.2320 P.3       1 COA         1.7961
     29 O4A        85.9410  -91.2220  -20.3870 O.2       1 COA        -0.8217
     30 O5A        87.9130  -89.7660  -20.8150 O.3       1 COA        -0.7957
     31 O6A        86.6310  -89.4110  -18.6740 O.3       1 COA        -0.5845
     32 CBP        85.9600  -88.6360  -16.5360 C.3       1 COA        -0.0497
     33 CCP        85.5210  -89.4080  -17.8120 C.3       1 COA         0.1790
     34 CDP        87.4920  -88.7900  -16.2100 C.3       1 COA        -0.0935
     35 CEP        85.6020  -87.2100  -16.9500 C.3       1 COA        -0.0935
     36 CAP        85.1850  -89.1370  -15.2540 C.3       1 COA         0.0894
     37 OAP        85.5020  -88.2660  -14.1280 O.3       1 COA        -0.6092
     38 C9P        83.6680  -89.1660  -15.4160 C.2       1 COA         0.6261
     39 O9P        83.0890  -90.0690  -16.2240 O.2       1 COA        -0.6256
     40 N8P        82.9960  -88.2770  -14.7190 N.am      1 COA        -0.5502
     41 C7P        81.5360  -88.1930  -14.7460 C.3       1 COA         0.1041
     42 C6P        81.0500  -88.2840  -13.2980 C.3       1 COA        -0.1869
     43 C5P        81.4830  -89.5720  -12.6330 C.2       1 COA         0.6568
     44 O5P        81.5080  -90.7220  -13.2480 O.2       1 COA        -0.6251
     45 N4P        81.8280  -89.4210  -11.3700 N.am      1 COA        -0.5520
     46 C3P        82.3050  -90.5540  -10.4610 C.3       1 COA         0.0821
     47 C2P        81.0660  -91.3020  -10.0080 C.3       1 COA        -0.0345
     48 S1P        81.4370  -92.6410   -8.8190 S.3       1 COA        -0.3748
     49 H2A        88.4990  -86.4230  -16.5720 H         1 COA         0.0536
     50 H61A       88.7598  -83.2668  -13.2708 H         1 COA         0.4510
     51 H62A       88.7477  -81.5947  -14.1840 H         1 COA         0.4510
     52 H8A        88.5050  -80.4030  -18.8910 H         1 COA         0.0802
     53 H1B        88.4770  -81.9515  -20.8397 H         1 COA         0.1055
     54 H2B        89.3598  -84.8274  -20.1072 H         1 COA         0.1051
     55 HO2A       91.1454  -83.2437  -20.2324 H         1 COA         0.4236
     56 H3B        88.8713  -85.1623  -22.7140 H         1 COA         0.0788
     57 HOA8       89.7991  -81.8946  -25.2883 H         1 COA         0.4944
     58 HOA9       86.8712  -85.3646  -24.4906 H         1 COA         0.4944
     59 H4B        86.2834  -84.3952  -22.3877 H         1 COA         0.1315
     60 H51A       87.2605  -86.0410  -20.1077 H         1 COA         0.0585
     61 H52A       85.5523  -85.7014  -20.5474 H         1 COA         0.0585
     62 HOA2       83.8791  -86.7250  -23.1617 H         1 COA         0.5028
     63 HOA5       88.0786  -90.0175  -21.8730 H         1 COA         0.5016
     64 H121       84.6753  -88.9064  -18.3050 H         1 COA         0.0648
     65 H122       85.2421  -90.4441  -17.5697 H         1 COA         0.0648
     66 H131       88.0860  -88.4540  -17.0727 H         1 COA         0.0471
     67 H132       87.7175  -89.8456  -15.9983 H         1 COA         0.0471
     68 H133       87.7432  -88.1780  -15.3311 H         1 COA         0.0471
     69 H141       86.1780  -86.9326  -17.8451 H         1 COA         0.0471
     70 H142       85.8437  -86.5184  -16.1295 H         1 COA         0.0471
     71 H143       84.5265  -87.1522  -17.1735 H         1 COA         0.0471
     72 H10        85.5087  -90.1600  -15.0118 H         1 COA         0.0727
     73 HO1        86.5501  -88.1036  -13.8363 H         1 COA         0.4386
     74 HN8        83.5757  -87.5785  -14.0977 H         1 COA         0.3391
     75 H71        81.2320  -87.2366  -15.1965 H         1 COA         0.0684
     76 H72        81.1319  -89.0242  -15.3425 H         1 COA         0.0684
     77 H61        81.4621  -87.4441  -12.7195 H         1 COA         0.0795
     78 H62        79.9511  -88.2397  -13.2766 H         1 COA         0.0795
     79 HN4        81.7547  -88.3956  -10.9785 H         1 COA         0.3154
     80 H31        82.9779  -91.2173  -11.0242 H         1 COA         0.0678
     81 H32        82.8431  -90.1313   -9.5998 H         1 COA         0.0678
     82 H21        80.3736  -90.6017   -9.5181 H         1 COA         0.0880
     83 H22        80.5724  -91.7559  -10.8800 H         1 COA         0.0880
     84 HS1        80.6217  -93.2588   -8.4145 H         1 COA         0.1995
@<TRIPOS>BOND
     1    1    2 ar
     2    1    6 ar
     3    2    3 ar
     4    2   49 1
     5    3    4 ar
     6    4    5 ar
     7    4   10 ar
     8    5    6 ar
     9    5    8 ar
    10    6    7 1
    11    7   50 1
    12    7   51 1
    13    8    9 ar
    14    9   10 ar
    15    9   52 1
    16   10   11 1
    17   11   12 1
    18   11   21 1
    19   11   53 1
    20   12   13 1
    21   12   14 1
    22   12   54 1
    23   13   55 1
    24   14   15 1
    25   14   20 1
    26   14   56 1
    27   15   16 1
    28   16   17 2
    29   16   18 1
    30   16   19 1
    31   18   57 1
    32   19   58 1
    33   20   21 1
    34   20   22 1
    35   20   59 1
    36   22   23 1
    37   22   60 1
    38   22   61 1
    39   23   24 1
    40   24   25 2
    41   24   26 1
    42   24   27 1
    43   26   62 1
    44   27   28 1
    45   28   29 2
    46   28   30 1
    47   28   31 1
    48   30   63 1
    49   31   33 1
    50   32   33 1
    51   32   34 1
    52   32   35 1
    53   32   36 1
    54   33   64 1
    55   33   65 1
    56   34   66 1
    57   34   67 1
    58   34   68 1
    59   35   69 1
    60   35   70 1
    61   35   71 1
    62   36   37 1
    63   36   38 1
    64   36   72 1
    65   37   73 1
    66   38   39 2
    67   38   40 am
    68   40   41 1
    69   40   74 1
    70   41   42 1
    71   41   75 1
    72   41   76 1
    73   42   43 1
    74   42   77 1
    75   42   78 1
    76   43   44 2
    77   43   45 am
    78   45   46 1
    79   45   79 1
    80   46   47 1
    81   46   80 1
    82   46   81 1
    83   47   48 1
    84   47   82 1
    85   47   83 1
    86   48   84 1
@<TRIPOS>SUBSTRUCTURE
     1 COA         1 GROUP   0 A     ****
@<TRIPOS>MOLECULE
[5-(6-aminopurin-9-yl)-4-hydroxy-2-[[[[3-hydroxy-2,2-dimethyl-4-oxo-4-[[3-oxo-3-(2-sulfanylethylamino)propyl]amino]butoxy]-oxido-phosphoryl]oxy-oxido-phosphoryl]oxymethyl]tetrahydrofuran-3-yl] phosphate
   80    82     1     0     0
SMALL
USER_CHARGES

@<TRIPOS>ATOM
      1 N1A        88.6040  -84.6940  -15.4010 N.ar      1 COA        -0.8194
      2 C2A        88.5170  -85.3620  -16.6140 C.ar      1 COA         0.6164
      3 N3A        88.4530  -84.8110  -17.8270 N.ar      1 COA        -0.6634
      4 C4A        88.4890  -83.4640  -17.7910 C.ar      1 COA         0.5616
      5 C5A        88.5780  -82.6230  -16.6440 C.ar      1 COA        -0.1957
      6 C6A        88.6370  -83.3150  -15.3450 C.ar      1 COA         0.6592
      7 N6A        88.7190  -82.6940  -14.2090 N.pl3     1 COA        -0.9209
      8 N7A        88.5930  -81.3110  -16.9840 N.ar      1 COA        -0.6212
      9 C8A        88.5140  -81.2930  -18.3130 C.ar      1 COA         0.5844
     10 N9A        88.4440  -82.5690  -18.8600 N.pl3     1 COA        -0.6339
     11 C1B        88.2830  -82.8930  -20.3050 C.3       1 COA         0.3820
     12 C2B        89.1690  -84.0030  -20.8100 C.3       1 COA         0.0894
     13 O2B        90.4930  -83.5370  -21.0680 O.3       1 COA        -0.6257
     14 C3B        88.4470  -84.3520  -22.1030 C.3       1 COA         0.1992
     15 O3B        88.5340  -83.3380  -23.0200 O.3       1 COA        -0.5566
     16 P3B        88.5670  -83.7630  -24.6320 P.3       1 COA         1.3104
     17 O7A        89.7760  -84.7730  -24.8120 O.2       1 COA        -0.9270
     18 O8A        88.8680  -82.4540  -25.4620 O.3       1 COA        -0.9270
     19 O9A        87.1870  -84.4450  -25.0050 O.3       1 COA        -0.9270
     20 C4B        86.9970  -84.4910  -21.5560 C.3       1 COA         0.0957
     21 O4B        86.9570  -83.4610  -20.4760 O.3       1 COA        -0.4377
     22 C5B        86.5780  -85.7930  -20.9340 C.3       1 COA         0.1723
     23 O5B        86.6630  -86.7650  -22.0150 O.3       1 COA        -0.5870
     24 P1A        85.5120  -87.8990  -22.1320 P.3       1 COA         1.5967
     25 O1A        85.9730  -88.8420  -23.2310 O.2       1 COA        -0.8874
     26 O2A        84.1350  -87.3250  -22.2760 O.3       1 COA        -0.8874
     27 O3A        85.5440  -88.6720  -20.8060 O.3       1 COA        -0.8200
     28 P2A        86.5260  -89.8380  -20.2320 P.3       1 COA         1.6132
     29 O4A        85.9410  -91.2220  -20.3870 O.2       1 COA        -0.9023
     30 O5A        87.9130  -89.7660  -20.8150 O.3       1 COA        -0.9023
     31 O6A        86.6310  -89.4110  -18.6740 O.3       1 COA        -0.5904
     32 CBP        85.9600  -88.6360  -16.5360 C.3       1 COA        -0.0952
     33 CCP        85.5210  -89.4080  -17.8120 C.3       1 COA         0.1929
     34 CDP        87.4920  -88.7900  -16.2100 C.3       1 COA        -0.0872
     35 CEP        85.6020  -87.2100  -16.9500 C.3       1 COA        -0.0872
     36 CAP        85.1850  -89.1370  -15.2540 C.3       1 COA         0.1119
     37 OAP        85.5020  -88.2660  -14.1280 O.3       1 COA        -0.6280
     38 C9P        83.6680  -89.1660  -15.4160 C.2       1 COA         0.6730
     39 O9P        83.0890  -90.0690  -16.2240 O.2       1 COA        -0.6346
     40 N8P        82.9960  -88.2770  -14.7190 N.am      1 COA        -0.5997
     41 C7P        81.5360  -88.1930  -14.7460 C.3       1 COA         0.1216
     42 C6P        81.0500  -88.2840  -13.2980 C.3       1 COA        -0.1831
     43 C5P        81.4830  -89.5720  -12.6330 C.2       1 COA         0.6682
     44 O5P        81.5080  -90.7220  -13.2480 O.2       1 COA        -0.6116
     45 N4P        81.8280  -89.4210  -11.3700 N.am      1 COA        -0.6044
     46 C3P        82.3050  -90.5540  -10.4610 C.3       1 COA         0.1026
     47 C2P        81.0660  -91.3020  -10.0080 C.3       1 COA        -0.0126
     48 S1P        81.4370  -92.6410   -8.8190 S.3       1 COA        -0.4287
     49 H2A        88.4990  -86.4230  -16.5720 H         1 COA         0.0210
     50 H61A       88.7598  -83.2668  -13.2708 H         1 COA         0.3850
     51 H62A       88.7477  -81.5947  -14.1840 H         1 COA         0.3850
     52 H8A        88.5050  -80.4030  -18.8910 H         1 COA         0.1359
     53 H1B        88.4770  -81.9515  -20.8397 H         1 COA         0.0887
     54 H2B        89.3598  -84.8274  -20.1072 H         1 COA         0.0540
     55 HO2A       91.1454  -83.2437  -20.2324 H         1 COA         0.4497
     56 H3B        88.8713  -85.1623  -22.7140 H         1 COA         0.0853
     57 H4B        86.2834  -84.3952  -22.3877 H         1 COA         0.1199
     58 H51A       87.2605  -86.0410  -20.1077 H         1 COA         0.0346
     59 H52A       85.5523  -85.7014  -20.5474 H         1 COA         0.0346
     60 H121       84.6753  -88.9064  -18.3050 H         1 COA         0.0511
     61 H122       85.2421  -90.4441  -17.5697 H         1 COA         0.0511
     62 H131       88.0860  -88.4540  -17.0727 H         1 COA         0.0365
     63 H132       87.7175  -89.8456  -15.9983 H         1 COA         0.0365
     64 H133       87.7432  -88.1780  -15.3311 H         1 COA         0.0365
     65 H141       86.1780  -86.9326  -17.8451 H         1 COA         0.0365
     66 H142       85.8437  -86.5184  -16.1295 H         1 COA         0.0365
     67 H143       84.5265  -87.1522  -17.1735 H         1 COA         0.0365
     68 H10        85.5087  -90.1600  -15.0118 H         1 COA         0.0722
     69 HO1        86.5501  -88.1036  -13.8363 H         1 COA         0.4666
     70 HN8        83.5757  -87.5785  -14.0977 H         1 COA         0.3260
     71 H71        81.2320  -87.2366  -15.1965 H         1 COA         0.0573
     72 H72        81.1319  -89.0242  -15.3425 H         1 COA         0.0573
     73 H61        81.4621  -87.4441  -12.7195 H         1 COA         0.0756
     74 H62        79.9511  -88.2397  -13.2766 H         1 COA         0.0756
     75 HN4        81.7547  -88.3956  -10.9785 H         1 COA         0.3100
     76 H31        82.9779  -91.2173  -11.0242 H         1 COA         0.0572
     77 H32        82.8431  -90.1313   -9.5998 H         1 COA         0.0572
     78 H21        80.3736  -90.6017   -9.5181 H         1 COA         0.0766
     79 H22        80.5724  -91.7559  -10.8800 H         1 COA         0.0766
     80 HS1        80.6217  -93.2588   -8.4145 H         1 COA         0.2312
@<TRIPOS>BOND
     1    1    2 ar
     2    1    6 ar
     3    2    3 ar
     4    2   49 1
     5    3    4 ar
     6    4    5 ar
     7    4   10 ar
     8    5    6 ar
     9    5    8 ar
    10    6    7 1
    11    7   50 1
    12    7   51 1
    13    8    9 ar
    14    9   10 ar
    15    9   52 1
    16   10   11 1
    17   11   12 1
    18   11   21 1
    19   11   53 1
    20   12   13 1
    21   12   14 1
    22   12   54 1
    23   13   55 1
    24   14   15 1
    25   14   20 1
    26   14   56 1
    27   15   16 1
    28   16   17 2
    29   16   18 1
    30   16   19 1
    31   20   21 1
    32   20   22 1
    33   20   57 1
    34   22   23 1
    35   22   58 1
    36   22   59 1
    37   23   24 1
    38   24   25 2
    39   24   26 1
    40   24   27 1
    41   27   28 1
    42   28   29 2
    43   28   30 1
    44   28   31 1
    45   31   33 1
    46   32   33 1
    47   32   34 1
    48   32   35 1
    49   32   36 1
    50   33   60 1
    51   33   61 1
    52   34   62 1
    53   34   63 1
    54   34   64 1
    55   35   65 1
    56   35   66 1
    57   35   67 1
    58   36   37 1
    59   36   38 1
    60   36   68 1
    61   37   69 1
    62   38   39 2
    63   38   40 am
    64   40   41 1
    65   40   70 1
    66   41   42 1
    67   41   71 1
    68   41   72 1
    69   42   43 1
    70   42   73 1
    71   42   74 1
    72   43   44 2
    73   43   45 am
    74   45   46 1
    75   45   75 1
    76   46   47 1
    77   46   76 1
    78   46   77 1
    79   47   48 1
    80   47   78 1
    81   47   79 1
    82   48   80 1
@<TRIPOS>SUBSTRUCTURE
     1 COA         1 GROUP   0 A     ****
@<TRIPOS>MOLECULE
[[5-(6-amino-1,2-dihydropurin-2-ylium-9-yl)-4-hydroxy-3-phosphonooxy-tetrahydrofuran-2-yl]methoxy-hydroxy-phosphoryl] [3-hydroxy-2,2-dimethyl-4-oxo-4-[[3-oxo-3-(2-sulfanylethylamino)propyl]amino]butyl] hydrogen phosphate
   85    87     1     0     0
SMALL
USER_CHARGES

@<TRIPOS>ATOM
      1 N1A        88.6040  -84.6940  -15.4010 N.pl3     1 COA        -0.6248
      2 C2A        88.5170  -85.3620  -16.6140 C.cat     1 COA         0.3095
      3 N3A        88.4530  -84.8110  -17.8270 N.ar      1 COA        -0.5309
      4 C4A        88.4890  -83.4640  -17.7910 C.ar      1 COA         0.6275
      5 C5A        88.5780  -82.6230  -16.6440 C.ar      1 COA        -0.1716
      6 C6A        88.6370  -83.3150  -15.3450 C.ar      1 COA         0.4965
      7 N6A        88.7190  -82.6940  -14.2090 N.pl3     1 COA        -0.8075
      8 N7A        88.5930  -81.3110  -16.9840 N.ar      1 COA        -0.5164
      9 C8A        88.5140  -81.2930  -18.3130 C.ar      1 COA         0.5678
     10 N9A        88.4440  -82.5690  -18.8600 N.pl3     1 COA        -0.5947
     11 C1B        88.2830  -82.8930  -20.3050 C.3       1 COA         0.4076
     12 C2B        89.1690  -84.0030  -20.8100 C.3       1 COA         0.1135
     13 O2B        90.4930  -83.5370  -21.0680 O.3       1 COA        -0.5691
     14 C3B        88.4470  -84.3520  -22.1030 C.3       1 COA         0.1429
     15 O3B        88.5340  -83.3380  -23.0200 O.3       1 COA        -0.5814
     16 P3B        88.5670  -83.7630  -24.6320 P.3       1 COA         1.6598
     17 O7A        89.7760  -84.7730  -24.8120 O.2       1 COA        -0.7814
     18 O8A        88.8680  -82.4540  -25.4620 O.3       1 COA        -0.7744
     19 O9A        87.1870  -84.4450  -25.0050 O.3       1 COA        -0.7744
     20 C4B        86.9970  -84.4910  -21.5560 C.3       1 COA         0.0927
     21 O4B        86.9570  -83.4610  -20.4760 O.3       1 COA        -0.3994
     22 C5B        86.5780  -85.7930  -20.9340 C.3       1 COA         0.1841
     23 O5B        86.6630  -86.7650  -22.0150 O.3       1 COA        -0.5762
     24 P1A        85.5120  -87.8990  -22.1320 P.3       1 COA         1.8187
     25 O1A        85.9730  -88.8420  -23.2310 O.2       1 COA        -0.7842
     26 O2A        84.1350  -87.3250  -22.2760 O.3       1 COA        -0.8166
     27 O3A        85.5440  -88.6720  -20.8060 O.3       1 COA        -0.8085
     28 P2A        86.5260  -89.8380  -20.2320 P.3       1 COA         1.7946
     29 O4A        85.9410  -91.2220  -20.3870 O.2       1 COA        -0.8392
     30 O5A        87.9130  -89.7660  -20.8150 O.3       1 COA        -0.7828
     31 O6A        86.6310  -89.4110  -18.6740 O.3       1 COA        -0.5834
     32 CBP        85.9600  -88.6360  -16.5360 C.3       1 COA        -0.0561
     33 CCP        85.5210  -89.4080  -17.8120 C.3       1 COA         0.1556
     34 CDP        87.4920  -88.7900  -16.2100 C.3       1 COA        -0.0830
     35 CEP        85.6020  -87.2100  -16.9500 C.3       1 COA        -0.0830
     36 CAP        85.1850  -89.1370  -15.2540 C.3       1 COA         0.0826
     37 OAP        85.5020  -88.2660  -14.1280 O.3       1 COA        -0.5932
     38 C9P        83.6680  -89.1660  -15.4160 C.2       1 COA         0.6157
     39 O9P        83.0890  -90.0690  -16.2240 O.2       1 COA        -0.6014
     40 N8P        82.9960  -88.2770  -14.7190 N.am      1 COA        -0.5544
     41 C7P        81.5360  -88.1930  -14.7460 C.3       1 COA         0.0971
     42 C6P        81.0500  -88.2840  -13.2980 C.3       1 COA        -0.1923
     43 C5P        81.4830  -89.5720  -12.6330 C.2       1 COA         0.6655
     44 O5P        81.5080  -90.7220  -13.2480 O.2       1 COA        -0.6072
     45 N4P        81.8280  -89.4210  -11.3700 N.am      1 COA        -0.5728
     46 C3P        82.3050  -90.5540  -10.4610 C.3       1 COA         0.0908
     47 C2P        81.0660  -91.3020  -10.0080 C.3       1 COA        -0.0329
     48 S1P        81.4370  -92.6410   -8.8190 S.3       1 COA        -0.3581
     49 H2A        88.4990  -86.4230  -16.5720 H         1 COA         0.2427
     50 H61A       88.7598  -83.2668  -13.2708 H         1 COA         0.4866
     51 H62A       88.7477  -81.5947  -14.1840 H         1 COA         0.4866
     52 H8A        88.5050  -80.4030  -18.8910 H         1 COA         0.1146
     53 H1B        88.4770  -81.9515  -20.8397 H         1 COA         0.1379
     54 H2B        89.3598  -84.8274  -20.1072 H         1 COA         0.0629
     55 HO2A       91.1454  -83.2437  -20.2324 H         1 COA         0.4354
     56 H3B        88.8713  -85.1623  -22.7140 H         1 COA         0.0807
     57 HOA8       89.7991  -81.8946  -25.2883 H         1 COA         0.5061
     58 HOA9       86.8712  -85.3646  -24.4906 H         1 COA         0.5061
     59 H4B        86.2834  -84.3952  -22.3877 H         1 COA         0.1531
     60 H51A       87.2605  -86.0410  -20.1077 H         1 COA         0.0556
     61 H52A       85.5523  -85.7014  -20.5474 H         1 COA         0.0556
     62 HOA2       83.8791  -86.7250  -23.1617 H         1 COA         0.4995
     63 HOA5       88.0786  -90.0175  -21.8730 H         1 COA         0.4990
     64 H121       84.6753  -88.9064  -18.3050 H         1 COA         0.0479
     65 H122       85.2421  -90.4441  -17.5697 H         1 COA         0.0479
     66 H131       88.0860  -88.4540  -17.0727 H         1 COA         0.0461
     67 H132       87.7175  -89.8456  -15.9983 H         1 COA         0.0461
     68 H133       87.7432  -88.1780  -15.3311 H         1 COA         0.0461
     69 H141       86.1780  -86.9326  -17.8451 H         1 COA         0.0461
     70 H142       85.8437  -86.5184  -16.1295 H         1 COA         0.0461
     71 H143       84.5265  -87.1522  -17.1735 H         1 COA         0.0461
     72 H10        85.5087  -90.1600  -15.0118 H         1 COA         0.0675
     73 HO1        86.5501  -88.1036  -13.8363 H         1 COA         0.4378
     74 HN8        83.5757  -87.5785  -14.0977 H         1 COA         0.3102
     75 H71        81.2320  -87.2366  -15.1965 H         1 COA         0.0863
     76 H72        81.1319  -89.0242  -15.3425 H         1 COA         0.0863
     77 H61        81.4621  -87.4441  -12.7195 H         1 COA         0.0752
     78 H62        79.9511  -88.2397  -13.2766 H         1 COA         0.0752
     79 HN4        81.7547  -88.3956  -10.9785 H         1 COA         0.3087
     80 H31        82.9779  -91.2173  -11.0242 H         1 COA         0.0710
     81 H32        82.8431  -90.1313   -9.5998 H         1 COA         0.0710
     82 H21        80.3736  -90.6017   -9.5181 H         1 COA         0.0792
     83 H22        80.5724  -91.7559  -10.8800 H         1 COA         0.0792
     84 HS1        80.6217  -93.2588   -8.4145 H         1 COA         0.2066
     85 H85        88.6480  -85.2639  -14.4612 H         1 COA         0.4794
@<TRIPOS>BOND
     1    1    2 ar
     2    1    6 ar
     3    1   85 1
     4    2    3 ar
     5    2   49 1
     6    3    4 ar
     7    4    5 ar
     8    4   10 ar
     9    5    6 ar
    10    5    8 ar
    11    6    7 1
    12    7   50 1
    13    7   51 1
    14    8    9 ar
    15    9   10 ar
    16    9   52 1
    17   10   11 1
    18   11   12 1
    19   11   21 1
    20   11   53 1
    21   12   13 1
    22   12   14 1
    23   12   54 1
    24   13   55 1
    25   14   15 1
    26   14   20 1
    27   14   56 1
    28   15   16 1
    29   16   17 2
    30   16   18 1
    31   16   19 1
    32   18   57 1
    33   19   58 1
    34   20   21 1
    35   20   22 1
    36   20   59 1
    37   22   23 1
    38   22   60 1
    39   22   61 1
    40   23   24 1
    41   24   25 2
    42   24   26 1
    43   24   27 1
    44   26   62 1
    45   27   28 1
    46   28   29 2
    47   28   30 1
    48   28   31 1
    49   30   63 1
    50   31   33 1
    51   32   33 1
    52   32   34 1
    53   32   35 1
    54   32   36 1
    55   33   64 1
    56   33   65 1
    57   34   66 1
    58   34   67 1
    59   34   68 1
    60   35   69 1
    61   35   70 1
    62   35   71 1
    63   36   37 1
    64   36   38 1
    65   36   72 1
    66   37   73 1
    67   38   39 2
    68   38   40 am
    69   40   41 1
    70   40   74 1
    71   41   42 1
    72   41   75 1
    73   41   76 1
    74   42   43 1
    75   42   77 1
    76   42   78 1
    77   43   44 2
    78   43   45 am
    79   45   46 1
    80   45   79 1
    81   46   47 1
    82   46   80 1
    83   46   81 1
    84   47   48 1
    85   47   82 1
    86   47   83 1
    87   48   84 1
@<TRIPOS>SUBSTRUCTURE
     1 COA         1 GROUP   0 A     ****
@<TRIPOS>MOLECULE
[5-(6-amino-7,8-dihydropurin-8-ylium-9-yl)-4-hydroxy-3-phosphonooxy-tetrahydrofuran-2-yl]methyl [hydroxy-[3-hydroxy-2,2-dimethyl-4-oxo-4-[[3-oxo-3-(2-sulfanylethylamino)propyl]amino]butoxy]phosphoryl] phosphate
   84    86     1     0     0
SMALL
USER_CHARGES

@<TRIPOS>ATOM
      1 N1A        88.6040  -84.6940  -15.4010 N.ar      1 COA        -0.7511
      2 C2A        88.5170  -85.3620  -16.6140 C.ar      1 COA         0.7168
      3 N3A        88.4530  -84.8110  -17.8270 N.ar      1 COA        -0.7159
      4 C4A        88.4890  -83.4640  -17.7910 C.ar      1 COA         0.6289
      5 C5A        88.5780  -82.6230  -16.6440 C.ar      1 COA        -0.2789
      6 C6A        88.6370  -83.3150  -15.3450 C.ar      1 COA         0.7677
      7 N6A        88.7190  -82.6940  -14.2090 N.pl3     1 COA        -0.9480
      8 N7A        88.5930  -81.3110  -16.9840 N.pl3     1 COA        -0.5158
      9 C8A        88.5140  -81.2930  -18.3130 C.cat     1 COA         0.3200
     10 N9A        88.4440  -82.5690  -18.8600 N.pl3     1 COA        -0.5885
     11 C1B        88.2830  -82.8930  -20.3050 C.3       1 COA         0.3799
     12 C2B        89.1690  -84.0030  -20.8100 C.3       1 COA         0.1033
     13 O2B        90.4930  -83.5370  -21.0680 O.3       1 COA        -0.5482
     14 C3B        88.4470  -84.3520  -22.1030 C.3       1 COA         0.1876
     15 O3B        88.5340  -83.3380  -23.0200 O.3       1 COA        -0.5727
     16 P3B        88.5670  -83.7630  -24.6320 P.3       1 COA         1.6507
     17 O7A        89.7760  -84.7730  -24.8120 O.2       1 COA        -0.7967
     18 O8A        88.8680  -82.4540  -25.4620 O.3       1 COA        -0.7609
     19 O9A        87.1870  -84.4450  -25.0050 O.3       1 COA        -0.7609
     20 C4B        86.9970  -84.4910  -21.5560 C.3       1 COA         0.0893
     21 O4B        86.9570  -83.4610  -20.4760 O.3       1 COA        -0.3905
     22 C5B        86.5780  -85.7930  -20.9340 C.3       1 COA         0.1792
     23 O5B        86.6630  -86.7650  -22.0150 O.3       1 COA        -0.5691
     24 P1A        85.5120  -87.8990  -22.1320 P.3       1 COA         1.6054
     25 O1A        85.9730  -88.8420  -23.2310 O.2       1 COA        -0.8472
     26 O2A        84.1350  -87.3250  -22.2760 O.3       1 COA        -0.8472
     27 O3A        85.5440  -88.6720  -20.8060 O.3       1 COA        -0.8032
     28 P2A        86.5260  -89.8380  -20.2320 P.3       1 COA         1.8079
     29 O4A        85.9410  -91.2220  -20.3870 O.2       1 COA        -0.8611
     30 O5A        87.9130  -89.7660  -20.8150 O.3       1 COA        -0.8041
     31 O6A        86.6310  -89.4110  -18.6740 O.3       1 COA        -0.6037
     32 CBP        85.9600  -88.6360  -16.5360 C.3       1 COA        -0.0811
     33 CCP        85.5210  -89.4080  -17.8120 C.3       1 COA         0.1950
     34 CDP        87.4920  -88.7900  -16.2100 C.3       1 COA        -0.0938
     35 CEP        85.6020  -87.2100  -16.9500 C.3       1 COA        -0.0938
     36 CAP        85.1850  -89.1370  -15.2540 C.3       1 COA         0.0860
     37 OAP        85.5020  -88.2660  -14.1280 O.3       1 COA        -0.5913
     38 C9P        83.6680  -89.1660  -15.4160 C.2       1 COA         0.6303
     39 O9P        83.0890  -90.0690  -16.2240 O.2       1 COA        -0.6236
     40 N8P        82.9960  -88.2770  -14.7190 N.am      1 COA        -0.5658
     41 C7P        81.5360  -88.1930  -14.7460 C.3       1 COA         0.1048
     42 C6P        81.0500  -88.2840  -13.2980 C.3       1 COA        -0.1805
     43 C5P        81.4830  -89.5720  -12.6330 C.2       1 COA         0.6607
     44 O5P        81.5080  -90.7220  -13.2480 O.2       1 COA        -0.6102
     45 N4P        81.8280  -89.4210  -11.3700 N.am      1 COA        -0.5839
     46 C3P        82.3050  -90.5540  -10.4610 C.3       1 COA         0.0949
     47 C2P        81.0660  -91.3020  -10.0080 C.3       1 COA        -0.0240
     48 S1P        81.4370  -92.6410   -8.8190 S.3       1 COA        -0.3768
     49 H2A        88.4990  -86.4230  -16.5720 H         1 COA         0.0839
     50 H61A       88.7598  -83.2668  -13.2708 H         1 COA         0.4590
     51 H62A       88.7477  -81.5947  -14.1840 H         1 COA         0.4590
     52 H8A        88.5050  -80.4030  -18.8910 H         1 COA         0.3487
     53 H1B        88.4770  -81.9515  -20.8397 H         1 COA         0.1291
     54 H2B        89.3598  -84.8274  -20.1072 H         1 COA         0.0664
     55 HO2A       91.1454  -83.2437  -20.2324 H         1 COA         0.4130
     56 H3B        88.8713  -85.1623  -22.7140 H         1 COA         0.0812
     57 HOA8       89.7991  -81.8946  -25.2883 H         1 COA         0.4927
     58 HOA9       86.8712  -85.3646  -24.4906 H         1 COA         0.4927
     59 H4B        86.2834  -84.3952  -22.3877 H         1 COA         0.1347
     60 H51A       87.2605  -86.0410  -20.1077 H         1 COA         0.0434
     61 H52A       85.5523  -85.7014  -20.5474 H         1 COA         0.0434
     62 HOA5       88.0786  -90.0175  -21.8730 H         1 COA         0.4832
     63 H121       84.6753  -88.9064  -18.3050 H         1 COA         0.0614
     64 H122       85.2421  -90.4441  -17.5697 H         1 COA         0.0614
     65 H131       88.0860  -88.4540  -17.0727 H         1 COA         0.0448
     66 H132       87.7175  -89.8456  -15.9983 H         1 COA         0.0448
     67 H133       87.7432  -88.1780  -15.3311 H         1 COA         0.0448
     68 H141       86.1780  -86.9326  -17.8451 H         1 COA         0.0448
     69 H142       85.8437  -86.5184  -16.1295 H         1 COA         0.0448
     70 H143       84.5265  -87.1522  -17.1735 H         1 COA         0.0448
     71 H10        85.5087  -90.1600  -15.0118 H         1 COA         0.0943
     72 HO1        86.5501  -88.1036  -13.8363 H         1 COA         0.4244
     73 HN8        83.5757  -87.5785  -14.0977 H         1 COA         0.3166
     74 H71        81.2320  -87.2366  -15.1965 H         1 COA         0.0750
     75 H72        81.1319  -89.0242  -15.3425 H         1 COA         0.0750
     76 H61        81.4621  -87.4441  -12.7195 H         1 COA         0.0735
     77 H62        79.9511  -88.2397  -13.2766 H         1 COA         0.0735
     78 HN4        81.7547  -88.3956  -10.9785 H         1 COA         0.3138
     79 H31        82.9779  -91.2173  -11.0242 H         1 COA         0.0701
     80 H32        82.8431  -90.1313   -9.5998 H         1 COA         0.0701
     81 H21        80.3736  -90.6017   -9.5181 H         1 COA         0.0834
     82 H22        80.5724  -91.7559  -10.8800 H         1 COA         0.0834
     83 HS1        80.6217  -93.2588   -8.4145 H         1 COA         0.1980
     84 H84        88.6605  -80.5408  -16.2015 H         1 COA         0.5075
@<TRIPOS>BOND
     1    1    2 ar
     2    1    6 ar
     3    2    3 ar
     4    2   49 1
     5    3    4 ar
     6    4    5 ar
     7    4   10 ar
     8    5    6 ar
     9    5    8 ar
    10    6    7 1
    11    7   50 1
    12    7   51 1
    13    8    9 ar
    14    8   84 1
    15    9   10 ar
    16    9   52 1
    17   10   11 1
    18   11   12 1
    19   11   21 1
    20   11   53 1
    21   12   13 1
    22   12   14 1
    23   12   54 1
    24   13   55 1
    25   14   15 1
    26   14   20 1
    27   14   56 1
    28   15   16 1
    29   16   17 2
    30   16   18 1
    31   16   19 1
    32   18   57 1
    33   19   58 1
    34   20   21 1
    35   20   22 1
    36   20   59 1
    37   22   23 1
    38   22   60 1
    39   22   61 1
    40   23   24 1
    41   24   25 2
    42   24   26 1
    43   24   27 1
    44   27   28 1
    45   28   29 2
    46   28   30 1
    47   28   31 1
    48   30   62 1
    49   31   33 1
    50   32   33 1
    51   32   34 1
    52   32   35 1
    53   32   36 1
    54   33   63 1
    55   33   64 1
    56   34   65 1
    57   34   66 1
    58   34   67 1
    59   35   68 1
    60   35   69 1
    61   35   70 1
    62   36   37 1
    63   36   38 1
    64   36   71 1
    65   37   72 1
    66   38   39 2
    67   38   40 am
    68   40   41 1
    69   40   73 1
    70   41   42 1
    71   41   74 1
    72   41   75 1
    73   42   43 1
    74   42   76 1
    75   42   77 1
    76   43   44 2
    77   43   45 am
    78   45   46 1
    79   45   78 1
    80   46   47 1
    81   46   79 1
    82   46   80 1
    83   47   48 1
    84   47   81 1
    85   47   82 1
    86   48   83 1
@<TRIPOS>SUBSTRUCTURE
     1 COA         1 GROUP   0 A     ****
@<TRIPOS>MOLECULE
[5-(6-amino-7,8-dihydropurin-8-ylium-9-yl)-4-hydroxy-2-[[hydroxy-[hydroxy-[3-hydroxy-2,2-dimethyl-4-oxo-4-[[3-oxo-3-(2-sulfanylethylamino)propyl]amino]butoxy]phosphoryl]oxy-phosphoryl]oxymethyl]tetrahydrofuran-3-yl] hydrogen phosphate
   84    86     1     0     0
SMALL
USER_CHARGES

@<TRIPOS>ATOM
      1 N1A        88.6040  -84.6940  -15.4010 N.ar      1 COA        -0.7477
      2 C2A        88.5170  -85.3620  -16.6140 C.ar      1 COA         0.7140
      3 N3A        88.4530  -84.8110  -17.8270 N.ar      1 COA        -0.6791
      4 C4A        88.4890  -83.4640  -17.7910 C.ar      1 COA         0.6151
      5 C5A        88.5780  -82.6230  -16.6440 C.ar      1 COA        -0.2741
      6 C6A        88.6370  -83.3150  -15.3450 C.ar      1 COA         0.7631
      7 N6A        88.7190  -82.6940  -14.2090 N.pl3     1 COA        -0.9485
      8 N7A        88.5930  -81.3110  -16.9840 N.pl3     1 COA        -0.5212
      9 C8A        88.5140  -81.2930  -18.3130 C.cat     1 COA         0.2849
     10 N9A        88.4440  -82.5690  -18.8600 N.pl3     1 COA        -0.5417
     11 C1B        88.2830  -82.8930  -20.3050 C.3       1 COA         0.3634
     12 C2B        89.1690  -84.0030  -20.8100 C.3       1 COA         0.0915
     13 O2B        90.4930  -83.5370  -21.0680 O.3       1 COA        -0.5147
     14 C3B        88.4470  -84.3520  -22.1030 C.3       1 COA         0.2412
     15 O3B        88.5340  -83.3380  -23.0200 O.3       1 COA        -0.5340
     16 P3B        88.5670  -83.7630  -24.6320 P.3       1 COA         1.4275
     17 O7A        89.7760  -84.7730  -24.8120 O.2       1 COA        -0.8097
     18 O8A        88.8680  -82.4540  -25.4620 O.3       1 COA        -0.8097
     19 O9A        87.1870  -84.4450  -25.0050 O.3       1 COA        -0.7900
     20 C4B        86.9970  -84.4910  -21.5560 C.3       1 COA         0.0927
     21 O4B        86.9570  -83.4610  -20.4760 O.3       1 COA        -0.3994
     22 C5B        86.5780  -85.7930  -20.9340 C.3       1 COA         0.1591
     23 O5B        86.6630  -86.7650  -22.0150 O.3       1 COA        -0.5885
     24 P1A        85.5120  -87.8990  -22.1320 P.3       1 COA         1.7986
     25 O1A        85.9730  -88.8420  -23.2310 O.2       1 COA        -0.8369
     26 O2A        84.1350  -87.3250  -22.2760 O.3       1 COA        -0.8048
     27 O3A        85.5440  -88.6720  -20.8060 O.3       1 COA        -0.8055
     28 P2A        86.5260  -89.8380  -20.2320 P.3       1 COA         1.7906
     29 O4A        85.9410  -91.2220  -20.3870 O.2       1 COA        -0.7888
     30 O5A        87.9130  -89.7660  -20.8150 O.3       1 COA        -0.7981
     31 O6A        86.6310  -89.4110  -18.6740 O.3       1 COA        -0.5840
     32 CBP        85.9600  -88.6360  -16.5360 C.3       1 COA        -0.0609
     33 CCP        85.5210  -89.4080  -17.8120 C.3       1 COA         0.1957
     34 CDP        87.4920  -88.7900  -16.2100 C.3       1 COA        -0.0975
     35 CEP        85.6020  -87.2100  -16.9500 C.3       1 COA        -0.0975
     36 CAP        85.1850  -89.1370  -15.2540 C.3       1 COA         0.0863
     37 OAP        85.5020  -88.2660  -14.1280 O.3       1 COA        -0.6039
     38 C9P        83.6680  -89.1660  -15.4160 C.2       1 COA         0.6308
     39 O9P        83.0890  -90.0690  -16.2240 O.2       1 COA        -0.6210
     40 N8P        82.9960  -88.2770  -14.7190 N.am      1 COA        -0.5615
     41 C7P        81.5360  -88.1930  -14.7460 C.3       1 COA         0.1029
     42 C6P        81.0500  -88.2840  -13.2980 C.3       1 COA        -0.1815
     43 C5P        81.4830  -89.5720  -12.6330 C.2       1 COA         0.6597
     44 O5P        81.5080  -90.7220  -13.2480 O.2       1 COA        -0.6080
     45 N4P        81.8280  -89.4210  -11.3700 N.am      1 COA        -0.5789
     46 C3P        82.3050  -90.5540  -10.4610 C.3       1 COA         0.0931
     47 C2P        81.0660  -91.3020  -10.0080 C.3       1 COA        -0.0282
     48 S1P        81.4370  -92.6410   -8.8190 S.3       1 COA        -0.3738
     49 H2A        88.4990  -86.4230  -16.5720 H         1 COA         0.0896
     50 H61A       88.7598  -83.2668  -13.2708 H         1 COA         0.4529
     51 H62A       88.7477  -81.5947  -14.1840 H         1 COA         0.4529
     52 H8A        88.5050  -80.4030  -18.8910 H         1 COA         0.2765
     53 H1B        88.4770  -81.9515  -20.8397 H         1 COA         0.1550
     54 H2B        89.3598  -84.8274  -20.1072 H         1 COA         0.0289
     55 HO2A       91.1454  -83.2437  -20.2324 H         1 COA         0.3899
     56 H3B        88.8713  -85.1623  -22.7140 H         1 COA         0.0932
     57 HOA9       86.8712  -85.3646  -24.4906 H         1 COA         0.4397
     58 H4B        86.2834  -84.3952  -22.3877 H         1 COA         0.1594
     59 H51A       87.2605  -86.0410  -20.1077 H         1 COA         0.0513
     60 H52A       85.5523  -85.7014  -20.5474 H         1 COA         0.0513
     61 HOA2       83.8791  -86.7250  -23.1617 H         1 COA         0.4779
     62 HOA5       88.0786  -90.0175  -21.8730 H         1 COA         0.5009
     63 H121       84.6753  -88.9064  -18.3050 H         1 COA         0.0503
     64 H122       85.2421  -90.4441  -17.5697 H         1 COA         0.0503
     65 H131       88.0860  -88.4540  -17.0727 H         1 COA         0.0480
     66 H132       87.7175  -89.8456  -15.9983 H         1 COA         0.0480
     67 H133       87.7432  -88.1780  -15.3311 H         1 COA         0.0480
     68 H141       86.1780  -86.9326  -17.8451 H         1 COA         0.0480
     69 H142       85.8437  -86.5184  -16.1295 H         1 COA         0.0480
     70 H143       84.5265  -87.1522  -17.1735 H         1 COA         0.0480
     71 H10        85.5087  -90.1600  -15.0118 H         1 COA         0.0916
     72 HO1        86.5501  -88.1036  -13.8363 H         1 COA         0.4327
     73 HN8        83.5757  -87.5785  -14.0977 H         1 COA         0.3212
     74 H71        81.2320  -87.2366  -15.1965 H         1 COA         0.0780
     75 H72        81.1319  -89.0242  -15.3425 H         1 COA         0.0780
     76 H61        81.4621  -87.4441  -12.7195 H         1 COA         0.0738
     77 H62        79.9511  -88.2397  -13.2766 H         1 COA         0.0738
     78 HN4        81.7547  -88.3956  -10.9785 H         1 COA         0.3130
     79 H31        82.9779  -91.2173  -11.0242 H         1 COA         0.0711
     80 H32        82.8431  -90.1313   -9.5998 H         1 COA         0.0711
     81 H21        80.3736  -90.6017   -9.5181 H         1 COA         0.0854
     82 H22        80.5724  -91.7559  -10.8800 H         1 COA         0.0854
     83 HS1        80.6217  -93.2588   -8.4145 H         1 COA         0.1985
     84 H84        88.6605  -80.5408  -16.2015 H         1 COA         0.4969
@<TRIPOS>BOND
     1    1    2 ar
     2    1    6 ar
     3    2    3 ar
     4    2   49 1
     5    3    4 ar
     6    4    5 ar
     7    4   10 ar
     8    5    6 ar
     9    5    8 ar
    10    6    7 1
    11    7   50 1
    12    7   51 1
    13    8    9 ar
    14    8   84 1
    15    9   10 ar
    16    9   52 1
    17   10   11 1
    18   11   12 1
    19   11   21 1
    20   11   53 1
    21   12   13 1
    22   12   14 1
    23   12   54 1
    24   13   55 1
    25   14   15 1
    26   14   20 1
    27   14   56 1
    28   15   16 1
    29   16   17 2
    30   16   18 1
    31   16   19 1
    32   19   57 1
    33   20   21 1
    34   20   22 1
    35   20   58 1
    36   22   23 1
    37   22   59 1
    38   22   60 1
    39   23   24 1
    40   24   25 2
    41   24   26 1
    42   24   27 1
    43   26   61 1
    44   27   28 1
    45   28   29 2
    46   28   30 1
    47   28   31 1
    48   30   62 1
    49   31   33 1
    50   32   33 1
    51   32   34 1
    52   32   35 1
    53   32   36 1
    54   33   63 1
    55   33   64 1
    56   34   65 1
    57   34   66 1
    58   34   67 1
    59   35   68 1
    60   35   69 1
    61   35   70 1
    62   36   37 1
    63   36   38 1
    64   36   71 1
    65   37   72 1
    66   38   39 2
    67   38   40 am
    68   40   41 1
    69   40   73 1
    70   41   42 1
    71   41   74 1
    72   41   75 1
    73   42   43 1
    74   42   76 1
    75   42   77 1
    76   43   44 2
    77   43   45 am
    78   45   46 1
    79   45   78 1
    80   46   47 1
    81   46   79 1
    82   46   80 1
    83   47   48 1
    84   47   81 1
    85   47   82 1
    86   48   83 1
@<TRIPOS>SUBSTRUCTURE
     1 COA         1 GROUP   0 A     ****
@<TRIPOS>MOLECULE
[5-(6-amino-1,2-dihydropurin-2-ylium-9-yl)-4-hydroxy-2-[[[[3-hydroxy-2,2-dimethyl-4-oxo-4-[[3-oxo-3-(2-sulfanylethylamino)propyl]amino]butoxy]-oxido-phosphoryl]oxy-oxido-phosphoryl]oxymethyl]tetrahydrofuran-3-yl] phosphate
   81    83     1     0     0
SMALL
USER_CHARGES

@<TRIPOS>ATOM
      1 N1A        88.6040  -84.6940  -15.4010 N.pl3     1 COA        -0.6287
      2 C2A        88.5170  -85.3620  -16.6140 C.cat     1 COA         0.2400
      3 N3A        88.4530  -84.8110  -17.8270 N.ar      1 COA        -0.5053
      4 C4A        88.4890  -83.4640  -17.7910 C.ar      1 COA         0.5721
      5 C5A        88.5780  -82.6230  -16.6440 C.ar      1 COA        -0.1416
      6 C6A        88.6370  -83.3150  -15.3450 C.ar      1 COA         0.3810
      7 N6A        88.7190  -82.6940  -14.2090 N.pl3     1 COA        -0.8321
      8 N7A        88.5930  -81.3110  -16.9840 N.ar      1 COA        -0.5828
      9 C8A        88.5140  -81.2930  -18.3130 C.ar      1 COA         0.6297
     10 N9A        88.4440  -82.5690  -18.8600 N.pl3     1 COA        -0.5543
     11 C1B        88.2830  -82.8930  -20.3050 C.3       1 COA         0.3711
     12 C2B        89.1690  -84.0030  -20.8100 C.3       1 COA         0.0556
     13 O2B        90.4930  -83.5370  -21.0680 O.3       1 COA        -0.5179
     14 C3B        88.4470  -84.3520  -22.1030 C.3       1 COA         0.2729
     15 O3B        88.5340  -83.3380  -23.0200 O.3       1 COA        -0.5193
     16 P3B        88.5670  -83.7630  -24.6320 P.3       1 COA         1.3031
     17 O7A        89.7760  -84.7730  -24.8120 O.2       1 COA        -0.9049
     18 O8A        88.8680  -82.4540  -25.4620 O.3       1 COA        -0.9049
     19 O9A        87.1870  -84.4450  -25.0050 O.3       1 COA        -0.9049
     20 C4B        86.9970  -84.4910  -21.5560 C.3       1 COA         0.0857
     21 O4B        86.9570  -83.4610  -20.4760 O.3       1 COA        -0.4128
     22 C5B        86.5780  -85.7930  -20.9340 C.3       1 COA         0.1657
     23 O5B        86.6630  -86.7650  -22.0150 O.3       1 COA        -0.5853
     24 P1A        85.5120  -87.8990  -22.1320 P.3       1 COA         1.6098
     25 O1A        85.9730  -88.8420  -23.2310 O.2       1 COA        -0.8979
     26 O2A        84.1350  -87.3250  -22.2760 O.3       1 COA        -0.8979
     27 O3A        85.5440  -88.6720  -20.8060 O.3       1 COA        -0.8171
     28 P2A        86.5260  -89.8380  -20.2320 P.3       1 COA         1.5972
     29 O4A        85.9410  -91.2220  -20.3870 O.2       1 COA        -0.8859
     30 O5A        87.9130  -89.7660  -20.8150 O.3       1 COA        -0.8859
     31 O6A        86.6310  -89.4110  -18.6740 O.3       1 COA        -0.5734
     32 CBP        85.9600  -88.6360  -16.5360 C.3       1 COA        -0.0698
     33 CCP        85.5210  -89.4080  -17.8120 C.3       1 COA         0.2066
     34 CDP        87.4920  -88.7900  -16.2100 C.3       1 COA        -0.0915
     35 CEP        85.6020  -87.2100  -16.9500 C.3       1 COA        -0.0915
     36 CAP        85.1850  -89.1370  -15.2540 C.3       1 COA         0.1193
     37 OAP        85.5020  -88.2660  -14.1280 O.3       1 COA        -0.5495
     38 C9P        83.6680  -89.1660  -15.4160 C.2       1 COA         0.6353
     39 O9P        83.0890  -90.0690  -16.2240 O.2       1 COA        -0.5979
     40 N8P        82.9960  -88.2770  -14.7190 N.am      1 COA        -0.6011
     41 C7P        81.5360  -88.1930  -14.7460 C.3       1 COA         0.1101
     42 C6P        81.0500  -88.2840  -13.2980 C.3       1 COA        -0.1720
     43 C5P        81.4830  -89.5720  -12.6330 C.2       1 COA         0.6667
     44 O5P        81.5080  -90.7220  -13.2480 O.2       1 COA        -0.6030
     45 N4P        81.8280  -89.4210  -11.3700 N.am      1 COA        -0.5943
     46 C3P        82.3050  -90.5540  -10.4610 C.3       1 COA         0.1026
     47 C2P        81.0660  -91.3020  -10.0080 C.3       1 COA        -0.0231
     48 S1P        81.4370  -92.6410   -8.8190 S.3       1 COA        -0.3859
     49 H2A        88.4990  -86.4230  -16.5720 H         1 COA         0.2022
     50 H61A       88.7598  -83.2668  -13.2708 H         1 COA         0.4323
     51 H62A       88.7477  -81.5947  -14.1840 H         1 COA         0.4323
     52 H8A        88.5050  -80.4030  -18.8910 H         1 COA         0.2243
     53 H1B        88.4770  -81.9515  -20.8397 H         1 COA         0.1015
     54 H2B        89.3598  -84.8274  -20.1072 H         1 COA         0.0346
     55 HO2A       91.1454  -83.2437  -20.2324 H         1 COA         0.3410
     56 H3B        88.8713  -85.1623  -22.7140 H         1 COA         0.0840
     57 H4B        86.2834  -84.3952  -22.3877 H         1 COA         0.1274
     58 H51A       87.2605  -86.0410  -20.1077 H         1 COA         0.0446
     59 H52A       85.5523  -85.7014  -20.5474 H         1 COA         0.0446
     60 H121       84.6753  -88.9064  -18.3050 H         1 COA         0.0257
     61 H122       85.2421  -90.4441  -17.5697 H         1 COA         0.0257
     62 H131       88.0860  -88.4540  -17.0727 H         1 COA         0.0426
     63 H132       87.7175  -89.8456  -15.9983 H         1 COA         0.0426
     64 H133       87.7432  -88.1780  -15.3311 H         1 COA         0.0426
     65 H141       86.1780  -86.9326  -17.8451 H         1 COA         0.0426
     66 H142       85.8437  -86.5184  -16.1295 H         1 COA         0.0426
     67 H143       84.5265  -87.1522  -17.1735 H         1 COA         0.0426
     68 H10        85.5087  -90.1600  -15.0118 H         1 COA         0.0386
     69 HO1        86.5501  -88.1036  -13.8363 H         1 COA         0.4070
     70 HN8        83.5757  -87.5785  -14.0977 H         1 COA         0.3094
     71 H71        81.2320  -87.2366  -15.1965 H         1 COA         0.0566
     72 H72        81.1319  -89.0242  -15.3425 H         1 COA         0.0566
     73 H61        81.4621  -87.4441  -12.7195 H         1 COA         0.0749
     74 H62        79.9511  -88.2397  -13.2766 H         1 COA         0.0749
     75 HN4        81.7547  -88.3956  -10.9785 H         1 COA         0.3033
     76 H31        82.9779  -91.2173  -11.0242 H         1 COA         0.0591
     77 H32        82.8431  -90.1313   -9.5998 H         1 COA         0.0591
     78 H21        80.3736  -90.6017   -9.5181 H         1 COA         0.0787
     79 H22        80.5724  -91.7559  -10.8800 H         1 COA         0.0787
     80 HS1        80.6217  -93.2588   -8.4145 H         1 COA         0.1913
     81 H81        88.6480  -85.2639  -14.4612 H         1 COA         0.4441
@<TRIPOS>BOND
     1    1    2 ar
     2    1    6 ar
     3    1   81 1
     4    2    3 ar
     5    2   49 1
     6    3    4 ar
     7    4    5 ar
     8    4   10 ar
     9    5    6 ar
    10    5    8 ar
    11    6    7 1
    12    7   50 1
    13    7   51 1
    14    8    9 ar
    15    9   10 ar
    16    9   52 1
    17   10   11 1
    18   11   12 1
    19   11   21 1
    20   11   53 1
    21   12   13 1
    22   12   14 1
    23   12   54 1
    24   13   55 1
    25   14   15 1
    26   14   20 1
    27   14   56 1
    28   15   16 1
    29   16   17 2
    30   16   18 1
    31   16   19 1
    32   20   21 1
    33   20   22 1
    34   20   57 1
    35   22   23 1
    36   22   58 1
    37   22   59 1
    38   23   24 1
    39   24   25 2
    40   24   26 1
    41   24   27 1
    42   27   28 1
    43   28   29 2
    44   28   30 1
    45   28   31 1
    46   31   33 1
    47   32   33 1
    48   32   34 1
    49   32   35 1
    50   32   36 1
    51   33   60 1
    52   33   61 1
    53   34   62 1
    54   34   63 1
    55   34   64 1
    56   35   65 1
    57   35   66 1
    58   35   67 1
    59   36   37 1
    60   36   38 1
    61   36   68 1
    62   37   69 1
    63   38   39 2
    64   38   40 am
    65   40   41 1
    66   40   70 1
    67   41   42 1
    68   41   71 1
    69   41   72 1
    70   42   43 1
    71   42   73 1
    72   42   74 1
    73   43   44 2
    74   43   45 am
    75   45   46 1
    76   45   75 1
    77   46   47 1
    78   46   76 1
    79   46   77 1
    80   47   48 1
    81   47   78 1
    82   47   79 1
    83   48   80 1
@<TRIPOS>SUBSTRUCTURE
     1 COA         1 GROUP   0 A     ****
@<TRIPOS>MOLECULE
[4-hydroxy-2-[[[[3-hydroxy-2,2-dimethyl-4-oxo-4-[[3-oxo-3-(2-sulfanylethylamino)propyl]amino]butoxy]-oxido-phosphoryl]oxy-oxido-phosphoryl]oxymethyl]-5-(6-imino-7,8-dihydro-1~{H}-purin-8-ylium-9-yl)tetrahydrofuran-3-yl] hydrogen phosphate
   82    84     1     0     0
SMALL
USER_CHARGES

@<TRIPOS>ATOM
      1 N1A        88.6040  -84.6940  -15.4010 N.pl3     1 COA        -0.7997
      2 C2A        88.5170  -85.3620  -16.6140 C.ar      1 COA         0.6487
      3 N3A        88.4530  -84.8110  -17.8270 N.ar      1 COA        -0.5660
      4 C4A        88.4890  -83.4640  -17.7910 C.ar      1 COA         0.2995
      5 C5A        88.5780  -82.6230  -16.6440 C.ar      1 COA        -0.2122
      6 C6A        88.6370  -83.3150  -15.3450 C.ar      1 COA         0.7228
      7 N6A        88.7190  -82.6940  -14.2090 N.2       1 COA        -0.8583
      8 N7A        88.5930  -81.3110  -16.9840 N.pl3     1 COA        -0.5279
      9 C8A        88.5140  -81.2930  -18.3130 C.cat     1 COA         0.2861
     10 N9A        88.4440  -82.5690  -18.8600 N.pl3     1 COA        -0.4231
     11 C1B        88.2830  -82.8930  -20.3050 C.3       1 COA         0.3853
     12 C2B        89.1690  -84.0030  -20.8100 C.3       1 COA         0.1020
     13 O2B        90.4930  -83.5370  -21.0680 O.3       1 COA        -0.6083
     14 C3B        88.4470  -84.3520  -22.1030 C.3       1 COA         0.1531
     15 O3B        88.5340  -83.3380  -23.0200 O.3       1 COA        -0.5763
     16 P3B        88.5670  -83.7630  -24.6320 P.3       1 COA         1.4238
     17 O7A        89.7760  -84.7730  -24.8120 O.2       1 COA        -0.8166
     18 O8A        88.8680  -82.4540  -25.4620 O.3       1 COA        -0.8166
     19 O9A        87.1870  -84.4450  -25.0050 O.3       1 COA        -0.7883
     20 C4B        86.9970  -84.4910  -21.5560 C.3       1 COA         0.1036
     21 O4B        86.9570  -83.4610  -20.4760 O.3       1 COA        -0.4031
     22 C5B        86.5780  -85.7930  -20.9340 C.3       1 COA         0.1723
     23 O5B        86.6630  -86.7650  -22.0150 O.3       1 COA        -0.5782
     24 P1A        85.5120  -87.8990  -22.1320 P.3       1 COA         1.6289
     25 O1A        85.9730  -88.8420  -23.2310 O.2       1 COA        -0.8928
     26 O2A        84.1350  -87.3250  -22.2760 O.3       1 COA        -0.8928
     27 O3A        85.5440  -88.6720  -20.8060 O.3       1 COA        -0.8190
     28 P2A        86.5260  -89.8380  -20.2320 P.3       1 COA         1.5924
     29 O4A        85.9410  -91.2220  -20.3870 O.2       1 COA        -0.8598
     30 O5A        87.9130  -89.7660  -20.8150 O.3       1 COA        -0.8598
     31 O6A        86.6310  -89.4110  -18.6740 O.3       1 COA        -0.6031
     32 CBP        85.9600  -88.6360  -16.5360 C.3       1 COA        -0.0932
     33 CCP        85.5210  -89.4080  -17.8120 C.3       1 COA         0.2029
     34 CDP        87.4920  -88.7900  -16.2100 C.3       1 COA        -0.0875
     35 CEP        85.6020  -87.2100  -16.9500 C.3       1 COA        -0.0875
     36 CAP        85.1850  -89.1370  -15.2540 C.3       1 COA         0.1277
     37 OAP        85.5020  -88.2660  -14.1280 O.3       1 COA        -0.6172
     38 C9P        83.6680  -89.1660  -15.4160 C.2       1 COA         0.6596
     39 O9P        83.0890  -90.0690  -16.2240 O.2       1 COA        -0.5960
     40 N8P        82.9960  -88.2770  -14.7190 N.am      1 COA        -0.5996
     41 C7P        81.5360  -88.1930  -14.7460 C.3       1 COA         0.1113
     42 C6P        81.0500  -88.2840  -13.2980 C.3       1 COA        -0.1856
     43 C5P        81.4830  -89.5720  -12.6330 C.2       1 COA         0.6644
     44 O5P        81.5080  -90.7220  -13.2480 O.2       1 COA        -0.6136
     45 N4P        81.8280  -89.4210  -11.3700 N.am      1 COA        -0.5734
     46 C3P        82.3050  -90.5540  -10.4610 C.3       1 COA         0.0931
     47 C2P        81.0660  -91.3020  -10.0080 C.3       1 COA        -0.0286
     48 S1P        81.4370  -92.6410   -8.8190 S.3       1 COA        -0.3833
     49 H2A        88.4990  -86.4230  -16.5720 H         1 COA         0.0677
     50 H62A       88.7420  -81.7000  -14.1860 H         1 COA         0.4091
     51 H8A        88.5050  -80.4030  -18.8910 H         1 COA         0.3921
     52 H1B        88.4770  -81.9515  -20.8397 H         1 COA         0.1133
     53 H2B        89.3598  -84.8274  -20.1072 H         1 COA         0.0764
     54 HO2A       91.1454  -83.2437  -20.2324 H         1 COA         0.4472
     55 H3B        88.8713  -85.1623  -22.7140 H         1 COA         0.1112
     56 HOA9       86.8712  -85.3646  -24.4906 H         1 COA         0.4262
     57 H4B        86.2834  -84.3952  -22.3877 H         1 COA         0.1144
     58 H51A       87.2605  -86.0410  -20.1077 H         1 COA         0.0462
     59 H52A       85.5523  -85.7014  -20.5474 H         1 COA         0.0462
     60 H121       84.6753  -88.9064  -18.3050 H         1 COA         0.0358
     61 H122       85.2421  -90.4441  -17.5697 H         1 COA         0.0358
     62 H131       88.0860  -88.4540  -17.0727 H         1 COA         0.0375
     63 H132       87.7175  -89.8456  -15.9983 H         1 COA         0.0375
     64 H133       87.7432  -88.1780  -15.3311 H         1 COA         0.0375
     65 H141       86.1780  -86.9326  -17.8451 H         1 COA         0.0375
     66 H142       85.8437  -86.5184  -16.1295 H         1 COA         0.0375
     67 H143       84.5265  -87.1522  -17.1735 H         1 COA         0.0375
     68 H10        85.5087  -90.1600  -15.0118 H         1 COA         0.0302
     69 HO1        86.5501  -88.1036  -13.8363 H         1 COA         0.4727
     70 HN8        83.5757  -87.5785  -14.0977 H         1 COA         0.3077
     71 H71        81.2320  -87.2366  -15.1965 H         1 COA         0.0643
     72 H72        81.1319  -89.0242  -15.3425 H         1 COA         0.0643
     73 H61        81.4621  -87.4441  -12.7195 H         1 COA         0.0767
     74 H62        79.9511  -88.2397  -13.2766 H         1 COA         0.0767
     75 HN4        81.7547  -88.3956  -10.9785 H         1 COA         0.3118
     76 H31        82.9779  -91.2173  -11.0242 H         1 COA         0.0601
     77 H32        82.8431  -90.1313   -9.5998 H         1 COA         0.0601
     78 H21        80.3736  -90.6017   -9.5181 H         1 COA         0.0806
     79 H22        80.5724  -91.7559  -10.8800 H         1 COA         0.0806
     80 HS1        80.6217  -93.2588   -8.4145 H         1 COA         0.1944
     81 H81        88.6480  -85.2639  -14.4612 H         1 COA         0.4659
     82 H82        88.6605  -80.5408  -16.2015 H         1 COA         0.4969
@<TRIPOS>BOND
     1    1    2 ar
     2    1    6 ar
     3    1   81 1
     4    2    3 ar
     5    2   49 1
     6    3    4 ar
     7    4    5 ar
     8    4   10 ar
     9    5    6 ar
    10    5    8 ar
    11    6    7 2
    12    7   50 1
    13    8    9 ar
    14    8   82 1
    15    9   10 ar
    16    9   51 1
    17   10   11 1
    18   11   12 1
    19   11   21 1
    20   11   52 1
    21   12   13 1
    22   12   14 1
    23   12   53 1
    24   13   54 1
    25   14   15 1
    26   14   20 1
    27   14   55 1
    28   15   16 1
    29   16   17 2
    30   16   18 1
    31   16   19 1
    32   19   56 1
    33   20   21 1
    34   20   22 1
    35   20   57 1
    36   22   23 1
    37   22   58 1
    38   22   59 1
    39   23   24 1
    40   24   25 2
    41   24   26 1
    42   24   27 1
    43   27   28 1
    44   28   29 2
    45   28   30 1
    46   28   31 1
    47   31   33 1
    48   32   33 1
    49   32   34 1
    50   32   35 1
    51   32   36 1
    52   33   60 1
    53   33   61 1
    54   34   62 1
    55   34   63 1
    56   34   64 1
    57   35   65 1
    58   35   66 1
    59   35   67 1
    60   36   37 1
    61   36   38 1
    62   36   68 1
    63   37   69 1
    64   38   39 2
    65   38   40 am
    66   40   41 1
    67   40   70 1
    68   41   42 1
    69   41   71 1
    70   41   72 1
    71   42   43 1
    72   42   73 1
    73   42   74 1
    74   43   44 2
    75   43   45 am
    76   45   46 1
    77   45   75 1
    78   46   47 1
    79   46   76 1
    80   46   77 1
    81   47   48 1
    82   47   78 1
    83   47   79 1
    84   48   80 1
@<TRIPOS>SUBSTRUCTURE
     1 COA         1 GROUP   0 A     ****
@<TRIPOS>MOLECULE
[4-hydroxy-2-[[[[3-hydroxy-2,2-dimethyl-4-oxo-4-[[3-oxo-3-(2-sulfanylethylamino)propyl]amino]butoxy]-oxido-phosphoryl]oxy-oxido-phosphoryl]oxymethyl]-5-(6-imino-7,8-dihydro-1~{H}-purin-8-ylium-9-yl)tetrahydrofuran-3-yl] hydrogen phosphate
   82    84     1     0     0
SMALL
USER_CHARGES

@<TRIPOS>ATOM
      1 N1A        88.6040  -84.6940  -15.4010 N.pl3     1 COA        -0.8496
      2 C2A        88.5170  -85.3620  -16.6140 C.ar      1 COA         0.6370
      3 N3A        88.4530  -84.8110  -17.8270 N.ar      1 COA        -0.5513
      4 C4A        88.4890  -83.4640  -17.7910 C.ar      1 COA         0.2793
      5 C5A        88.5780  -82.6230  -16.6440 C.ar      1 COA        -0.1457
      6 C6A        88.6370  -83.3150  -15.3450 C.ar      1 COA         0.7272
      7 N6A        88.7190  -82.6940  -14.2090 N.2       1 COA        -0.8400
      8 N7A        88.5930  -81.3110  -16.9840 N.pl3     1 COA        -0.5074
      9 C8A        88.5140  -81.2930  -18.3130 C.cat     1 COA         0.2776
     10 N9A        88.4440  -82.5690  -18.8600 N.pl3     1 COA        -0.4187
     11 C1B        88.2830  -82.8930  -20.3050 C.3       1 COA         0.3829
     12 C2B        89.1690  -84.0030  -20.8100 C.3       1 COA         0.1024
     13 O2B        90.4930  -83.5370  -21.0680 O.3       1 COA        -0.6105
     14 C3B        88.4470  -84.3520  -22.1030 C.3       1 COA         0.1470
     15 O3B        88.5340  -83.3380  -23.0200 O.3       1 COA        -0.5782
     16 P3B        88.5670  -83.7630  -24.6320 P.3       1 COA         1.4241
     17 O7A        89.7760  -84.7730  -24.8120 O.2       1 COA        -0.8163
     18 O8A        88.8680  -82.4540  -25.4620 O.3       1 COA        -0.8163
     19 O9A        87.1870  -84.4450  -25.0050 O.3       1 COA        -0.7885
     20 C4B        86.9970  -84.4910  -21.5560 C.3       1 COA         0.1049
     21 O4B        86.9570  -83.4610  -20.4760 O.3       1 COA        -0.4025
     22 C5B        86.5780  -85.7930  -20.9340 C.3       1 COA         0.1684
     23 O5B        86.6630  -86.7650  -22.0150 O.3       1 COA        -0.5763
     24 P1A        85.5120  -87.8990  -22.1320 P.3       1 COA         1.6291
     25 O1A        85.9730  -88.8420  -23.2310 O.2       1 COA        -0.8931
     26 O2A        84.1350  -87.3250  -22.2760 O.3       1 COA        -0.8931
     27 O3A        85.5440  -88.6720  -20.8060 O.3       1 COA        -0.8206
     28 P2A        86.5260  -89.8380  -20.2320 P.3       1 COA         1.5921
     29 O4A        85.9410  -91.2220  -20.3870 O.2       1 COA        -0.8606
     30 O5A        87.9130  -89.7660  -20.8150 O.3       1 COA        -0.8606
     31 O6A        86.6310  -89.4110  -18.6740 O.3       1 COA        -0.5991
     32 CBP        85.9600  -88.6360  -16.5360 C.3       1 COA        -0.0916
     33 CCP        85.5210  -89.4080  -17.8120 C.3       1 COA         0.2007
     34 CDP        87.4920  -88.7900  -16.2100 C.3       1 COA        -0.0863
     35 CEP        85.6020  -87.2100  -16.9500 C.3       1 COA        -0.0863
     36 CAP        85.1850  -89.1370  -15.2540 C.3       1 COA         0.1245
     37 OAP        85.5020  -88.2660  -14.1280 O.3       1 COA        -0.6148
     38 C9P        83.6680  -89.1660  -15.4160 C.2       1 COA         0.6607
     39 O9P        83.0890  -90.0690  -16.2240 O.2       1 COA        -0.5956
     40 N8P        82.9960  -88.2770  -14.7190 N.am      1 COA        -0.5999
     41 C7P        81.5360  -88.1930  -14.7460 C.3       1 COA         0.1135
     42 C6P        81.0500  -88.2840  -13.2980 C.3       1 COA        -0.1860
     43 C5P        81.4830  -89.5720  -12.6330 C.2       1 COA         0.6663
     44 O5P        81.5080  -90.7220  -13.2480 O.2       1 COA        -0.6149
     45 N4P        81.8280  -89.4210  -11.3700 N.am      1 COA        -0.5751
     46 C3P        82.3050  -90.5540  -10.4610 C.3       1 COA         0.0946
     47 C2P        81.0660  -91.3020  -10.0080 C.3       1 COA        -0.0299
     48 S1P        81.4370  -92.6410   -8.8190 S.3       1 COA        -0.3815
     49 H2A        88.4990  -86.4230  -16.5720 H         1 COA         0.0630
     50 H61A       88.7590  -83.2120  -13.3610 H         1 COA         0.3940
     51 H8A        88.5050  -80.4030  -18.8910 H         1 COA         0.3902
     52 H1B        88.4770  -81.9515  -20.8397 H         1 COA         0.1114
     53 H2B        89.3598  -84.8274  -20.1072 H         1 COA         0.0816
     54 HO2A       91.1454  -83.2437  -20.2324 H         1 COA         0.4457
     55 H3B        88.8713  -85.1623  -22.7140 H         1 COA         0.1167
     56 HOA9       86.8712  -85.3646  -24.4906 H         1 COA         0.4260
     57 H4B        86.2834  -84.3952  -22.3877 H         1 COA         0.1106
     58 H51A       87.2605  -86.0410  -20.1077 H         1 COA         0.0490
     59 H52A       85.5523  -85.7014  -20.5474 H         1 COA         0.0490
     60 H121       84.6753  -88.9064  -18.3050 H         1 COA         0.0341
     61 H122       85.2421  -90.4441  -17.5697 H         1 COA         0.0341
     62 H131       88.0860  -88.4540  -17.0727 H         1 COA         0.0371
     63 H132       87.7175  -89.8456  -15.9983 H         1 COA         0.0371
     64 H133       87.7432  -88.1780  -15.3311 H         1 COA         0.0371
     65 H141       86.1780  -86.9326  -17.8451 H         1 COA         0.0371
     66 H142       85.8437  -86.5184  -16.1295 H         1 COA         0.0371
     67 H143       84.5265  -87.1522  -17.1735 H         1 COA         0.0371
     68 H10        85.5087  -90.1600  -15.0118 H         1 COA         0.0284
     69 HO1        86.5501  -88.1036  -13.8363 H         1 COA         0.4708
     70 HN8        83.5757  -87.5785  -14.0977 H         1 COA         0.3081
     71 H71        81.2320  -87.2366  -15.1965 H         1 COA         0.0634
     72 H72        81.1319  -89.0242  -15.3425 H         1 COA         0.0634
     73 H61        81.4621  -87.4441  -12.7195 H         1 COA         0.0775
     74 H62        79.9511  -88.2397  -13.2766 H         1 COA         0.0775
     75 HN4        81.7547  -88.3956  -10.9785 H         1 COA         0.3124
     76 H31        82.9779  -91.2173  -11.0242 H         1 COA         0.0599
     77 H32        82.8431  -90.1313   -9.5998 H         1 COA         0.0599
     78 H21        80.3736  -90.6017   -9.5181 H         1 COA         0.0807
     79 H22        80.5724  -91.7559  -10.8800 H         1 COA         0.0807
     80 HS1        80.6217  -93.2588   -8.4145 H         1 COA         0.1937
     81 H81        88.6480  -85.2639  -14.4612 H         1 COA         0.4436
     82 H82        88.6605  -80.5408  -16.2015 H         1 COA         0.5101
@<TRIPOS>BOND
     1    1    2 ar
     2    1    6 ar
     3    1   81 1
     4    2    3 ar
     5    2   49 1
     6    3    4 ar
     7    4    5 ar
     8    4   10 ar
     9    5    6 ar
    10    5    8 ar
    11    6    7 2
    12    7   50 1
    13    8    9 ar
    14    8   82 1
    15    9   10 ar
    16    9   51 1
    17   10   11 1
    18   11   12 1
    19   11   21 1
    20   11   52 1
    21   12   13 1
    22   12   14 1
    23   12   53 1
    24   13   54 1
    25   14   15 1
    26   14   20 1
    27   14   55 1
    28   15   16 1
    29   16   17 2
    30   16   18 1
    31   16   19 1
    32   19   56 1
    33   20   21 1
    34   20   22 1
    35   20   57 1
    36   22   23 1
    37   22   58 1
    38   22   59 1
    39   23   24 1
    40   24   25 2
    41   24   26 1
    42   24   27 1
    43   27   28 1
    44   28   29 2
    45   28   30 1
    46   28   31 1
    47   31   33 1
    48   32   33 1
    49   32   34 1
    50   32   35 1
    51   32   36 1
    52   33   60 1
    53   33   61 1
    54   34   62 1
    55   34   63 1
    56   34   64 1
    57   35   65 1
    58   35   66 1
    59   35   67 1
    60   36   37 1
    61   36   38 1
    62   36   68 1
    63   37   69 1
    64   38   39 2
    65   38   40 am
    66   40   41 1
    67   40   70 1
    68   41   42 1
    69   41   71 1
    70   41   72 1
    71   42   43 1
    72   42   73 1
    73   42   74 1
    74   43   44 2
    75   43   45 am
    76   45   46 1
    77   45   75 1
    78   46   47 1
    79   46   76 1
    80   46   77 1
    81   47   48 1
    82   47   78 1
    83   47   79 1
    84   48   80 1
@<TRIPOS>SUBSTRUCTURE
     1 COA         1 GROUP   0 A     ****
@<TRIPOS>MOLECULE
[[5-(6-amino-7,8-dihydropurin-8-ylium-9-yl)-4-hydroxy-3-phosphonooxy-tetrahydrofuran-2-yl]methoxy-hydroxy-phosphoryl] [3-hydroxy-2,2-dimethyl-4-oxo-4-[[3-oxo-3-(2-sulfanylethylamino)propyl]amino]butyl] phosphate
   84    86     1     0     0
SMALL
USER_CHARGES

@<TRIPOS>ATOM
      1 N1A        88.6040  -84.6940  -15.4010 N.ar      1 COA        -0.7469
      2 C2A        88.5170  -85.3620  -16.6140 C.ar      1 COA         0.7209
      3 N3A        88.4530  -84.8110  -17.8270 N.ar      1 COA        -0.6959
      4 C4A        88.4890  -83.4640  -17.7910 C.ar      1 COA         0.6352
      5 C5A        88.5780  -82.6230  -16.6440 C.ar      1 COA        -0.2805
      6 C6A        88.6370  -83.3150  -15.3450 C.ar      1 COA         0.7681
      7 N6A        88.7190  -82.6940  -14.2090 N.pl3     1 COA        -0.9421
      8 N7A        88.5930  -81.3110  -16.9840 N.pl3     1 COA        -0.5039
      9 C8A        88.5140  -81.2930  -18.3130 C.cat     1 COA         0.3001
     10 N9A        88.4440  -82.5690  -18.8600 N.pl3     1 COA        -0.5678
     11 C1B        88.2830  -82.8930  -20.3050 C.3       1 COA         0.3735
     12 C2B        89.1690  -84.0030  -20.8100 C.3       1 COA         0.1032
     13 O2B        90.4930  -83.5370  -21.0680 O.3       1 COA        -0.5390
     14 C3B        88.4470  -84.3520  -22.1030 C.3       1 COA         0.1924
     15 O3B        88.5340  -83.3380  -23.0200 O.3       1 COA        -0.5594
     16 P3B        88.5670  -83.7630  -24.6320 P.3       1 COA         1.6471
     17 O7A        89.7760  -84.7730  -24.8120 O.2       1 COA        -0.8062
     18 O8A        88.8680  -82.4540  -25.4620 O.3       1 COA        -0.7555
     19 O9A        87.1870  -84.4450  -25.0050 O.3       1 COA        -0.7555
     20 C4B        86.9970  -84.4910  -21.5560 C.3       1 COA         0.0880
     21 O4B        86.9570  -83.4610  -20.4760 O.3       1 COA        -0.3879
     22 C5B        86.5780  -85.7930  -20.9340 C.3       1 COA         0.1916
     23 O5B        86.6630  -86.7650  -22.0150 O.3       1 COA        -0.5718
     24 P1A        85.5120  -87.8990  -22.1320 P.3       1 COA         1.7929
     25 O1A        85.9730  -88.8420  -23.2310 O.2       1 COA        -0.8345
     26 O2A        84.1350  -87.3250  -22.2760 O.3       1 COA        -0.8371
     27 O3A        85.5440  -88.6720  -20.8060 O.3       1 COA        -0.7917
     28 P2A        86.5260  -89.8380  -20.2320 P.3       1 COA         1.5415
     29 O4A        85.9410  -91.2220  -20.3870 O.2       1 COA        -0.8078
     30 O5A        87.9130  -89.7660  -20.8150 O.3       1 COA        -0.8078
     31 O6A        86.6310  -89.4110  -18.6740 O.3       1 COA        -0.5855
     32 CBP        85.9600  -88.6360  -16.5360 C.3       1 COA        -0.0750
     33 CCP        85.5210  -89.4080  -17.8120 C.3       1 COA         0.1828
     34 CDP        87.4920  -88.7900  -16.2100 C.3       1 COA        -0.0824
     35 CEP        85.6020  -87.2100  -16.9500 C.3       1 COA        -0.0824
     36 CAP        85.1850  -89.1370  -15.2540 C.3       1 COA         0.0885
     37 OAP        85.5020  -88.2660  -14.1280 O.3       1 COA        -0.6001
     38 C9P        83.6680  -89.1660  -15.4160 C.2       1 COA         0.6294
     39 O9P        83.0890  -90.0690  -16.2240 O.2       1 COA        -0.6403
     40 N8P        82.9960  -88.2770  -14.7190 N.am      1 COA        -0.5564
     41 C7P        81.5360  -88.1930  -14.7460 C.3       1 COA         0.1052
     42 C6P        81.0500  -88.2840  -13.2980 C.3       1 COA        -0.1815
     43 C5P        81.4830  -89.5720  -12.6330 C.2       1 COA         0.6607
     44 O5P        81.5080  -90.7220  -13.2480 O.2       1 COA        -0.6093
     45 N4P        81.8280  -89.4210  -11.3700 N.am      1 COA        -0.5662
     46 C3P        82.3050  -90.5540  -10.4610 C.3       1 COA         0.0867
     47 C2P        81.0660  -91.3020  -10.0080 C.3       1 COA        -0.0308
     48 S1P        81.4370  -92.6410   -8.8190 S.3       1 COA        -0.3776
     49 H2A        88.4990  -86.4230  -16.5720 H         1 COA         0.0889
     50 H61A       88.7598  -83.2668  -13.2708 H         1 COA         0.4581
     51 H62A       88.7477  -81.5947  -14.1840 H         1 COA         0.4581
     52 H8A        88.5050  -80.4030  -18.8910 H         1 COA         0.2994
     53 H1B        88.4770  -81.9515  -20.8397 H         1 COA         0.1484
     54 H2B        89.3598  -84.8274  -20.1072 H         1 COA         0.0580
     55 HO2A       91.1454  -83.2437  -20.2324 H         1 COA         0.4107
     56 H3B        88.8713  -85.1623  -22.7140 H         1 COA         0.0899
     57 HOA8       89.7991  -81.8946  -25.2883 H         1 COA         0.4926
     58 HOA9       86.8712  -85.3646  -24.4906 H         1 COA         0.4926
     59 H4B        86.2834  -84.3952  -22.3877 H         1 COA         0.1396
     60 H51A       87.2605  -86.0410  -20.1077 H         1 COA         0.0490
     61 H52A       85.5523  -85.7014  -20.5474 H         1 COA         0.0490
     62 HOA2       83.8791  -86.7250  -23.1617 H         1 COA         0.4673
     63 H121       84.6753  -88.9064  -18.3050 H         1 COA         0.0300
     64 H122       85.2421  -90.4441  -17.5697 H         1 COA         0.0300
     65 H131       88.0860  -88.4540  -17.0727 H         1 COA         0.0379
     66 H132       87.7175  -89.8456  -15.9983 H         1 COA         0.0379
     67 H133       87.7432  -88.1780  -15.3311 H         1 COA         0.0379
     68 H141       86.1780  -86.9326  -17.8451 H         1 COA         0.0379
     69 H142       85.8437  -86.5184  -16.1295 H         1 COA         0.0379
     70 H143       84.5265  -87.1522  -17.1735 H         1 COA         0.0379
     71 H10        85.5087  -90.1600  -15.0118 H         1 COA         0.1070
     72 HO1        86.5501  -88.1036  -13.8363 H         1 COA         0.4216
     73 HN8        83.5757  -87.5785  -14.0977 H         1 COA         0.3311
     74 H71        81.2320  -87.2366  -15.1965 H         1 COA         0.0770
     75 H72        81.1319  -89.0242  -15.3425 H         1 COA         0.0770
     76 H61        81.4621  -87.4441  -12.7195 H         1 COA         0.0768
     77 H62        79.9511  -88.2397  -13.2766 H         1 COA         0.0768
     78 HN4        81.7547  -88.3956  -10.9785 H         1 COA         0.3150
     79 H31        82.9779  -91.2173  -11.0242 H         1 COA         0.0652
     80 H32        82.8431  -90.1313   -9.5998 H         1 COA         0.0652
     81 H21        80.3736  -90.6017   -9.5181 H         1 COA         0.0843
     82 H22        80.5724  -91.7559  -10.8800 H         1 COA         0.0843
     83 HS1        80.6217  -93.2588   -8.4145 H         1 COA         0.1953
     84 H84        88.6605  -80.5408  -16.2015 H         1 COA         0.5056
@<TRIPOS>BOND
     1    1    2 ar
     2    1    6 ar
     3    2    3 ar
     4    2   49 1
     5    3    4 ar
     6    4    5 ar
     7    4   10 ar
     8    5    6 ar
     9    5    8 ar
    10    6    7 1
    11    7   50 1
    12    7   51 1
    13    8    9 ar
    14    8   84 1
    15    9   10 ar
    16    9   52 1
    17   10   11 1
    18   11   12 1
    19   11   21 1
    20   11   53 1
    21   12   13 1
    22   12   14 1
    23   12   54 1
    24   13   55 1
    25   14   15 1
    26   14   20 1
    27   14   56 1
    28   15   16 1
    29   16   17 2
    30   16   18 1
    31   16   19 1
    32   18   57 1
    33   19   58 1
    34   20   21 1
    35   20   22 1
    36   20   59 1
    37   22   23 1
    38   22   60 1
    39   22   61 1
    40   23   24 1
    41   24   25 2
    42   24   26 1
    43   24   27 1
    44   26   62 1
    45   27   28 1
    46   28   29 2
    47   28   30 1
    48   28   31 1
    49   31   33 1
    50   32   33 1
    51   32   34 1
    52   32   35 1
    53   32   36 1
    54   33   63 1
    55   33   64 1
    56   34   65 1
    57   34   66 1
    58   34   67 1
    59   35   68 1
    60   35   69 1
    61   35   70 1
    62   36   37 1
    63   36   38 1
    64   36   71 1
    65   37   72 1
    66   38   39 2
    67   38   40 am
    68   40   41 1
    69   40   73 1
    70   41   42 1
    71   41   74 1
    72   41   75 1
    73   42   43 1
    74   42   76 1
    75   42   77 1
    76   43   44 2
    77   43   45 am
    78   45   46 1
    79   45   78 1
    80   46   47 1
    81   46   79 1
    82   46   80 1
    83   47   48 1
    84   47   81 1
    85   47   82 1
    86   48   83 1
@<TRIPOS>SUBSTRUCTURE
     1 COA         1 GROUP   0 A     ****
@<TRIPOS>MOLECULE
[5-(6-aminopurin-9-yl)-4-hydroxy-2-[[[hydroxy-[3-hydroxy-2,2-dimethyl-4-oxo-4-[[3-oxo-3-(2-sulfanylethylamino)propyl]amino]butoxy]phosphoryl]oxy-oxido-phosphoryl]oxymethyl]tetrahydrofuran-3-yl] phosphate
   81    83     1     0     0
SMALL
USER_CHARGES

@<TRIPOS>ATOM
      1 N1A        88.6040  -84.6940  -15.4010 N.ar      1 COA        -0.8091
      2 C2A        88.5170  -85.3620  -16.6140 C.ar      1 COA         0.6338
      3 N3A        88.4530  -84.8110  -17.8270 N.ar      1 COA        -0.6755
      4 C4A        88.4890  -83.4640  -17.7910 C.ar      1 COA         0.5624
      5 C5A        88.5780  -82.6230  -16.6440 C.ar      1 COA        -0.2043
      6 C6A        88.6370  -83.3150  -15.3450 C.ar      1 COA         0.6793
      7 N6A        88.7190  -82.6940  -14.2090 N.pl3     1 COA        -0.9248
      8 N7A        88.5930  -81.3110  -16.9840 N.ar      1 COA        -0.6060
      9 C8A        88.5140  -81.2930  -18.3130 C.ar      1 COA         0.5652
     10 N9A        88.4440  -82.5690  -18.8600 N.pl3     1 COA        -0.6508
     11 C1B        88.2830  -82.8930  -20.3050 C.3       1 COA         0.3714
     12 C2B        89.1690  -84.0030  -20.8100 C.3       1 COA         0.0649
     13 O2B        90.4930  -83.5370  -21.0680 O.3       1 COA        -0.5228
     14 C3B        88.4470  -84.3520  -22.1030 C.3       1 COA         0.2725
     15 O3B        88.5340  -83.3380  -23.0200 O.3       1 COA        -0.5173
     16 P3B        88.5670  -83.7630  -24.6320 P.3       1 COA         1.3078
     17 O7A        89.7760  -84.7730  -24.8120 O.2       1 COA        -0.9236
     18 O8A        88.8680  -82.4540  -25.4620 O.3       1 COA        -0.9236
     19 O9A        87.1870  -84.4450  -25.0050 O.3       1 COA        -0.9236
     20 C4B        86.9970  -84.4910  -21.5560 C.3       1 COA         0.0784
     21 O4B        86.9570  -83.4610  -20.4760 O.3       1 COA        -0.4351
     22 C5B        86.5780  -85.7930  -20.9340 C.3       1 COA         0.1651
     23 O5B        86.6630  -86.7650  -22.0150 O.3       1 COA        -0.5797
     24 P1A        85.5120  -87.8990  -22.1320 P.3       1 COA         1.5523
     25 O1A        85.9730  -88.8420  -23.2310 O.2       1 COA        -0.8361
     26 O2A        84.1350  -87.3250  -22.2760 O.3       1 COA        -0.8361
     27 O3A        85.5440  -88.6720  -20.8060 O.3       1 COA        -0.7720
     28 P2A        86.5260  -89.8380  -20.2320 P.3       1 COA         1.7860
     29 O4A        85.9410  -91.2220  -20.3870 O.2       1 COA        -0.8640
     30 O5A        87.9130  -89.7660  -20.8150 O.3       1 COA        -0.7971
     31 O6A        86.6310  -89.4110  -18.6740 O.3       1 COA        -0.5883
     32 CBP        85.9600  -88.6360  -16.5360 C.3       1 COA        -0.0828
     33 CCP        85.5210  -89.4080  -17.8120 C.3       1 COA         0.2012
     34 CDP        87.4920  -88.7900  -16.2100 C.3       1 COA        -0.0846
     35 CEP        85.6020  -87.2100  -16.9500 C.3       1 COA        -0.0846
     36 CAP        85.1850  -89.1370  -15.2540 C.3       1 COA         0.0802
     37 OAP        85.5020  -88.2660  -14.1280 O.3       1 COA        -0.5965
     38 C9P        83.6680  -89.1660  -15.4160 C.2       1 COA         0.6287
     39 O9P        83.0890  -90.0690  -16.2240 O.2       1 COA        -0.6292
     40 N8P        82.9960  -88.2770  -14.7190 N.am      1 COA        -0.5561
     41 C7P        81.5360  -88.1930  -14.7460 C.3       1 COA         0.0953
     42 C6P        81.0500  -88.2840  -13.2980 C.3       1 COA        -0.1921
     43 C5P        81.4830  -89.5720  -12.6330 C.2       1 COA         0.6671
     44 O5P        81.5080  -90.7220  -13.2480 O.2       1 COA        -0.6437
     45 N4P        81.8280  -89.4210  -11.3700 N.am      1 COA        -0.5798
     46 C3P        82.3050  -90.5540  -10.4610 C.3       1 COA         0.0967
     47 C2P        81.0660  -91.3020  -10.0080 C.3       1 COA        -0.0222
     48 S1P        81.4370  -92.6410   -8.8190 S.3       1 COA        -0.3938
     49 H2A        88.4990  -86.4230  -16.5720 H         1 COA         0.0301
     50 H61A       88.7598  -83.2668  -13.2708 H         1 COA         0.3964
     51 H62A       88.7477  -81.5947  -14.1840 H         1 COA         0.3964
     52 H8A        88.5050  -80.4030  -18.8910 H         1 COA         0.1127
     53 H1B        88.4770  -81.9515  -20.8397 H         1 COA         0.1161
     54 H2B        89.3598  -84.8274  -20.1072 H         1 COA         0.0075
     55 HO2A       91.1454  -83.2437  -20.2324 H         1 COA         0.3498
     56 H3B        88.8713  -85.1623  -22.7140 H         1 COA         0.0702
     57 H4B        86.2834  -84.3952  -22.3877 H         1 COA         0.1285
     58 H51A       87.2605  -86.0410  -20.1077 H         1 COA         0.0414
     59 H52A       85.5523  -85.7014  -20.5474 H         1 COA         0.0414
     60 HOA5       88.0786  -90.0175  -21.8730 H         1 COA         0.4621
     61 H121       84.6753  -88.9064  -18.3050 H         1 COA         0.0174
     62 H122       85.2421  -90.4441  -17.5697 H         1 COA         0.0174
     63 H131       88.0860  -88.4540  -17.0727 H         1 COA         0.0475
     64 H132       87.7175  -89.8456  -15.9983 H         1 COA         0.0475
     65 H133       87.7432  -88.1780  -15.3311 H         1 COA         0.0475
     66 H141       86.1780  -86.9326  -17.8451 H         1 COA         0.0475
     67 H142       85.8437  -86.5184  -16.1295 H         1 COA         0.0475
     68 H143       84.5265  -87.1522  -17.1735 H         1 COA         0.0475
     69 H10        85.5087  -90.1600  -15.0118 H         1 COA         0.0777
     70 HO1        86.5501  -88.1036  -13.8363 H         1 COA         0.4194
     71 HN8        83.5757  -87.5785  -14.0977 H         1 COA         0.3133
     72 H71        81.2320  -87.2366  -15.1965 H         1 COA         0.0678
     73 H72        81.1319  -89.0242  -15.3425 H         1 COA         0.0678
     74 H61        81.4621  -87.4441  -12.7195 H         1 COA         0.0946
     75 H62        79.9511  -88.2397  -13.2766 H         1 COA         0.0946
     76 HN4        81.7547  -88.3956  -10.9785 H         1 COA         0.3369
     77 H31        82.9779  -91.2173  -11.0242 H         1 COA         0.0642
     78 H32        82.8431  -90.1313   -9.5998 H         1 COA         0.0642
     79 H21        80.3736  -90.6017   -9.5181 H         1 COA         0.0735
     80 H22        80.5724  -91.7559  -10.8800 H         1 COA         0.0735
     81 HS1        80.6217  -93.2588   -8.4145 H         1 COA         0.2268
@<TRIPOS>BOND
     1    1    2 ar
     2    1    6 ar
     3    2    3 ar
     4    2   49 1
     5    3    4 ar
     6    4    5 ar
     7    4   10 ar
     8    5    6 ar
     9    5    8 ar
    10    6    7 1
    11    7   50 1
    12    7   51 1
    13    8    9 ar
    14    9   10 ar
    15    9   52 1
    16   10   11 1
    17   11   12 1
    18   11   21 1
    19   11   53 1
    20   12   13 1
    21   12   14 1
    22   12   54 1
    23   13   55 1
    24   14   15 1
    25   14   20 1
    26   14   56 1
    27   15   16 1
    28   16   17 2
    29   16   18 1
    30   16   19 1
    31   20   21 1
    32   20   22 1
    33   20   57 1
    34   22   23 1
    35   22   58 1
    36   22   59 1
    37   23   24 1
    38   24   25 2
    39   24   26 1
    40   24   27 1
    41   27   28 1
    42   28   29 2
    43   28   30 1
    44   28   31 1
    45   30   60 1
    46   31   33 1
    47   32   33 1
    48   32   34 1
    49   32   35 1
    50   32   36 1
    51   33   61 1
    52   33   62 1
    53   34   63 1
    54   34   64 1
    55   34   65 1
    56   35   66 1
    57   35   67 1
    58   35   68 1
    59   36   37 1
    60   36   38 1
    61   36   69 1
    62   37   70 1
    63   38   39 2
    64   38   40 am
    65   40   41 1
    66   40   71 1
    67   41   42 1
    68   41   72 1
    69   41   73 1
    70   42   43 1
    71   42   74 1
    72   42   75 1
    73   43   44 2
    74   43   45 am
    75   45   46 1
    76   45   76 1
    77   46   47 1
    78   46   77 1
    79   46   78 1
    80   47   48 1
    81   47   79 1
    82   47   80 1
    83   48   81 1
@<TRIPOS>SUBSTRUCTURE
     1 COA         1 GROUP   0 A     ****
@<TRIPOS>MOLECULE
[5-(6-aminopurin-9-yl)-4-hydroxy-2-[[hydroxy-[[3-hydroxy-2,2-dimethyl-4-oxo-4-[[3-oxo-3-(2-sulfanylethylamino)propyl]amino]butoxy]-oxido-phosphoryl]oxy-phosphoryl]oxymethyl]tetrahydrofuran-3-yl] phosphate
   81    83     1     0     0
SMALL
USER_CHARGES

@<TRIPOS>ATOM
      1 N1A        88.6040  -84.6940  -15.4010 N.ar      1 COA        -0.8155
      2 C2A        88.5170  -85.3620  -16.6140 C.ar      1 COA         0.6351
      3 N3A        88.4530  -84.8110  -17.8270 N.ar      1 COA        -0.6651
      4 C4A        88.4890  -83.4640  -17.7910 C.ar      1 COA         0.5709
      5 C5A        88.5780  -82.6230  -16.6440 C.ar      1 COA        -0.2027
      6 C6A        88.6370  -83.3150  -15.3450 C.ar      1 COA         0.6797
      7 N6A        88.7190  -82.6940  -14.2090 N.pl3     1 COA        -0.9211
      8 N7A        88.5930  -81.3110  -16.9840 N.ar      1 COA        -0.6091
      9 C8A        88.5140  -81.2930  -18.3130 C.ar      1 COA         0.5588
     10 N9A        88.4440  -82.5690  -18.8600 N.pl3     1 COA        -0.6323
     11 C1B        88.2830  -82.8930  -20.3050 C.3       1 COA         0.3833
     12 C2B        89.1690  -84.0030  -20.8100 C.3       1 COA         0.0824
     13 O2B        90.4930  -83.5370  -21.0680 O.3       1 COA        -0.6231
     14 C3B        88.4470  -84.3520  -22.1030 C.3       1 COA         0.2149
     15 O3B        88.5340  -83.3380  -23.0200 O.3       1 COA        -0.5459
     16 P3B        88.5670  -83.7630  -24.6320 P.3       1 COA         1.3086
     17 O7A        89.7760  -84.7730  -24.8120 O.2       1 COA        -0.9189
     18 O8A        88.8680  -82.4540  -25.4620 O.3       1 COA        -0.9189
     19 O9A        87.1870  -84.4450  -25.0050 O.3       1 COA        -0.9189
     20 C4B        86.9970  -84.4910  -21.5560 C.3       1 COA         0.0820
     21 O4B        86.9570  -83.4610  -20.4760 O.3       1 COA        -0.4430
     22 C5B        86.5780  -85.7930  -20.9340 C.3       1 COA         0.1584
     23 O5B        86.6630  -86.7650  -22.0150 O.3       1 COA        -0.5792
     24 P1A        85.5120  -87.8990  -22.1320 P.3       1 COA         1.7879
     25 O1A        85.9730  -88.8420  -23.2310 O.2       1 COA        -0.8885
     26 O2A        84.1350  -87.3250  -22.2760 O.3       1 COA        -0.7988
     27 O3A        85.5440  -88.6720  -20.8060 O.3       1 COA        -0.8034
     28 P2A        86.5260  -89.8380  -20.2320 P.3       1 COA         1.5769
     29 O4A        85.9410  -91.2220  -20.3870 O.2       1 COA        -0.8343
     30 O5A        87.9130  -89.7660  -20.8150 O.3       1 COA        -0.8343
     31 O6A        86.6310  -89.4110  -18.6740 O.3       1 COA        -0.6079
     32 CBP        85.9600  -88.6360  -16.5360 C.3       1 COA        -0.0487
     33 CCP        85.5210  -89.4080  -17.8120 C.3       1 COA         0.1838
     34 CDP        87.4920  -88.7900  -16.2100 C.3       1 COA        -0.0865
     35 CEP        85.6020  -87.2100  -16.9500 C.3       1 COA        -0.0865
     36 CAP        85.1850  -89.1370  -15.2540 C.3       1 COA         0.0914
     37 OAP        85.5020  -88.2660  -14.1280 O.3       1 COA        -0.5981
     38 C9P        83.6680  -89.1660  -15.4160 C.2       1 COA         0.6314
     39 O9P        83.0890  -90.0690  -16.2240 O.2       1 COA        -0.6688
     40 N8P        82.9960  -88.2770  -14.7190 N.am      1 COA        -0.5567
     41 C7P        81.5360  -88.1930  -14.7460 C.3       1 COA         0.1088
     42 C6P        81.0500  -88.2840  -13.2980 C.3       1 COA        -0.1770
     43 C5P        81.4830  -89.5720  -12.6330 C.2       1 COA         0.6648
     44 O5P        81.5080  -90.7220  -13.2480 O.2       1 COA        -0.5975
     45 N4P        81.8280  -89.4210  -11.3700 N.am      1 COA        -0.6035
     46 C3P        82.3050  -90.5540  -10.4610 C.3       1 COA         0.1005
     47 C2P        81.0660  -91.3020  -10.0080 C.3       1 COA        -0.0139
     48 S1P        81.4370  -92.6410   -8.8190 S.3       1 COA        -0.4196
     49 H2A        88.4990  -86.4230  -16.5720 H         1 COA         0.0315
     50 H61A       88.7598  -83.2668  -13.2708 H         1 COA         0.3924
     51 H62A       88.7477  -81.5947  -14.1840 H         1 COA         0.3924
     52 H8A        88.5050  -80.4030  -18.8910 H         1 COA         0.1006
     53 H1B        88.4770  -81.9515  -20.8397 H         1 COA         0.1111
     54 H2B        89.3598  -84.8274  -20.1072 H         1 COA         0.0404
     55 HO2A       91.1454  -83.2437  -20.2324 H         1 COA         0.4516
     56 H3B        88.8713  -85.1623  -22.7140 H         1 COA         0.0761
     57 H4B        86.2834  -84.3952  -22.3877 H         1 COA         0.1669
     58 H51A       87.2605  -86.0410  -20.1077 H         1 COA         0.0538
     59 H52A       85.5523  -85.7014  -20.5474 H         1 COA         0.0538
     60 HOA2       83.8791  -86.7250  -23.1617 H         1 COA         0.4580
     61 H121       84.6753  -88.9064  -18.3050 H         1 COA         0.0409
     62 H122       85.2421  -90.4441  -17.5697 H         1 COA         0.0409
     63 H131       88.0860  -88.4540  -17.0727 H         1 COA         0.0412
     64 H132       87.7175  -89.8456  -15.9983 H         1 COA         0.0412
     65 H133       87.7432  -88.1780  -15.3311 H         1 COA         0.0412
     66 H141       86.1780  -86.9326  -17.8451 H         1 COA         0.0412
     67 H142       85.8437  -86.5184  -16.1295 H         1 COA         0.0412
     68 H143       84.5265  -87.1522  -17.1735 H         1 COA         0.0412
     69 H10        85.5087  -90.1600  -15.0118 H         1 COA         0.0795
     70 HO1        86.5501  -88.1036  -13.8363 H         1 COA         0.3939
     71 HN8        83.5757  -87.5785  -14.0977 H         1 COA         0.3640
     72 H71        81.2320  -87.2366  -15.1965 H         1 COA         0.0754
     73 H72        81.1319  -89.0242  -15.3425 H         1 COA         0.0754
     74 H61        81.4621  -87.4441  -12.7195 H         1 COA         0.0702
     75 H62        79.9511  -88.2397  -13.2766 H         1 COA         0.0702
     76 HN4        81.7547  -88.3956  -10.9785 H         1 COA         0.3081
     77 H31        82.9779  -91.2173  -11.0242 H         1 COA         0.0621
     78 H32        82.8431  -90.1313   -9.5998 H         1 COA         0.0621
     79 H21        80.3736  -90.6017   -9.5181 H         1 COA         0.0807
     80 H22        80.5724  -91.7559  -10.8800 H         1 COA         0.0807
     81 HS1        80.6217  -93.2588   -8.4145 H         1 COA         0.2182
@<TRIPOS>BOND
     1    1    2 ar
     2    1    6 ar
     3    2    3 ar
     4    2   49 1
     5    3    4 ar
     6    4    5 ar
     7    4   10 ar
     8    5    6 ar
     9    5    8 ar
    10    6    7 1
    11    7   50 1
    12    7   51 1
    13    8    9 ar
    14    9   10 ar
    15    9   52 1
    16   10   11 1
    17   11   12 1
    18   11   21 1
    19   11   53 1
    20   12   13 1
    21   12   14 1
    22   12   54 1
    23   13   55 1
    24   14   15 1
    25   14   20 1
    26   14   56 1
    27   15   16 1
    28   16   17 2
    29   16   18 1
    30   16   19 1
    31   20   21 1
    32   20   22 1
    33   20   57 1
    34   22   23 1
    35   22   58 1
    36   22   59 1
    37   23   24 1
    38   24   25 2
    39   24   26 1
    40   24   27 1
    41   26   60 1
    42   27   28 1
    43   28   29 2
    44   28   30 1
    45   28   31 1
    46   31   33 1
    47   32   33 1
    48   32   34 1
    49   32   35 1
    50   32   36 1
    51   33   61 1
    52   33   62 1
    53   34   63 1
    54   34   64 1
    55   34   65 1
    56   35   66 1
    57   35   67 1
    58   35   68 1
    59   36   37 1
    60   36   38 1
    61   36   69 1
    62   37   70 1
    63   38   39 2
    64   38   40 am
    65   40   41 1
    66   40   71 1
    67   41   42 1
    68   41   72 1
    69   41   73 1
    70   42   43 1
    71   42   74 1
    72   42   75 1
    73   43   44 2
    74   43   45 am
    75   45   46 1
    76   45   76 1
    77   46   47 1
    78   46   77 1
    79   46   78 1
    80   47   48 1
    81   47   79 1
    82   47   80 1
    83   48   81 1
@<TRIPOS>SUBSTRUCTURE
     1 COA         1 GROUP   0 A     ****
@<TRIPOS>MOLECULE
[4-hydroxy-2-[[[hydroxy-[3-hydroxy-2,2-dimethyl-4-oxo-4-[[3-oxo-3-(2-sulfanylethylamino)propyl]amino]butoxy]phosphoryl]oxy-oxido-phosphoryl]oxymethyl]-5-(6-imino-7,8-dihydro-1~{H}-purin-8-ylium-9-yl)tetrahydrofuran-3-yl] hydrogen phosphate
   83    85     1     0     0
SMALL
USER_CHARGES

@<TRIPOS>ATOM
      1 N1A        88.6040  -84.6940  -15.4010 N.pl3     1 COA        -0.7907
      2 C2A        88.5170  -85.3620  -16.6140 C.ar      1 COA         0.6690
      3 N3A        88.4530  -84.8110  -17.8270 N.ar      1 COA        -0.5772
      4 C4A        88.4890  -83.4640  -17.7910 C.ar      1 COA         0.3021
      5 C5A        88.5780  -82.6230  -16.6440 C.ar      1 COA        -0.2079
      6 C6A        88.6370  -83.3150  -15.3450 C.ar      1 COA         0.7149
      7 N6A        88.7190  -82.6940  -14.2090 N.2       1 COA        -0.8281
      8 N7A        88.5930  -81.3110  -16.9840 N.pl3     1 COA        -0.5100
      9 C8A        88.5140  -81.2930  -18.3130 C.cat     1 COA         0.2671
     10 N9A        88.4440  -82.5690  -18.8600 N.pl3     1 COA        -0.4211
     11 C1B        88.2830  -82.8930  -20.3050 C.3       1 COA         0.3685
     12 C2B        89.1690  -84.0030  -20.8100 C.3       1 COA         0.0849
     13 O2B        90.4930  -83.5370  -21.0680 O.3       1 COA        -0.5208
     14 C3B        88.4470  -84.3520  -22.1030 C.3       1 COA         0.2161
     15 O3B        88.5340  -83.3380  -23.0200 O.3       1 COA        -0.5384
     16 P3B        88.5670  -83.7630  -24.6320 P.3       1 COA         1.4284
     17 O7A        89.7760  -84.7730  -24.8120 O.2       1 COA        -0.8206
     18 O8A        88.8680  -82.4540  -25.4620 O.3       1 COA        -0.8206
     19 O9A        87.1870  -84.4450  -25.0050 O.3       1 COA        -0.7775
     20 C4B        86.9970  -84.4910  -21.5560 C.3       1 COA         0.0947
     21 O4B        86.9570  -83.4610  -20.4760 O.3       1 COA        -0.4074
     22 C5B        86.5780  -85.7930  -20.9340 C.3       1 COA         0.1649
     23 O5B        86.6630  -86.7650  -22.0150 O.3       1 COA        -0.5762
     24 P1A        85.5120  -87.8990  -22.1320 P.3       1 COA         1.5871
     25 O1A        85.9730  -88.8420  -23.2310 O.2       1 COA        -0.8491
     26 O2A        84.1350  -87.3250  -22.2760 O.3       1 COA        -0.8491
     27 O3A        85.5440  -88.6720  -20.8060 O.3       1 COA        -0.7979
     28 P2A        86.5260  -89.8380  -20.2320 P.3       1 COA         1.7854
     29 O4A        85.9410  -91.2220  -20.3870 O.2       1 COA        -0.8436
     30 O5A        87.9130  -89.7660  -20.8150 O.3       1 COA        -0.7954
     31 O6A        86.6310  -89.4110  -18.6740 O.3       1 COA        -0.5829
     32 CBP        85.9600  -88.6360  -16.5360 C.3       1 COA        -0.0770
     33 CCP        85.5210  -89.4080  -17.8120 C.3       1 COA         0.1928
     34 CDP        87.4920  -88.7900  -16.2100 C.3       1 COA        -0.0871
     35 CEP        85.6020  -87.2100  -16.9500 C.3       1 COA        -0.0871
     36 CAP        85.1850  -89.1370  -15.2540 C.3       1 COA         0.0831
     37 OAP        85.5020  -88.2660  -14.1280 O.3       1 COA        -0.5883
     38 C9P        83.6680  -89.1660  -15.4160 C.2       1 COA         0.6232
     39 O9P        83.0890  -90.0690  -16.2240 O.2       1 COA        -0.6142
     40 N8P        82.9960  -88.2770  -14.7190 N.am      1 COA        -0.5570
     41 C7P        81.5360  -88.1930  -14.7460 C.3       1 COA         0.0943
     42 C6P        81.0500  -88.2840  -13.2980 C.3       1 COA        -0.1928
     43 C5P        81.4830  -89.5720  -12.6330 C.2       1 COA         0.6657
     44 O5P        81.5080  -90.7220  -13.2480 O.2       1 COA        -0.6213
     45 N4P        81.8280  -89.4210  -11.3700 N.am      1 COA        -0.5816
     46 C3P        82.3050  -90.5540  -10.4610 C.3       1 COA         0.0942
     47 C2P        81.0660  -91.3020  -10.0080 C.3       1 COA        -0.0263
     48 S1P        81.4370  -92.6410   -8.8190 S.3       1 COA        -0.3788
     49 H2A        88.4990  -86.4230  -16.5720 H         1 COA         0.0799
     50 H62A       88.7420  -81.7000  -14.1860 H         1 COA         0.4108
     51 H8A        88.5050  -80.4030  -18.8910 H         1 COA         0.3458
     52 H1B        88.4770  -81.9515  -20.8397 H         1 COA         0.1394
     53 H2B        89.3598  -84.8274  -20.1072 H         1 COA         0.0349
     54 HO2A       91.1454  -83.2437  -20.2324 H         1 COA         0.3767
     55 H3B        88.8713  -85.1623  -22.7140 H         1 COA         0.0897
     56 HOA9       86.8712  -85.3646  -24.4906 H         1 COA         0.4281
     57 H4B        86.2834  -84.3952  -22.3877 H         1 COA         0.1255
     58 H51A       87.2605  -86.0410  -20.1077 H         1 COA         0.0535
     59 H52A       85.5523  -85.7014  -20.5474 H         1 COA         0.0535
     60 HOA5       88.0786  -90.0175  -21.8730 H         1 COA         0.4690
     61 H121       84.6753  -88.9064  -18.3050 H         1 COA         0.0277
     62 H122       85.2421  -90.4441  -17.5697 H         1 COA         0.0277
     63 H131       88.0860  -88.4540  -17.0727 H         1 COA         0.0487
     64 H132       87.7175  -89.8456  -15.9983 H         1 COA         0.0487
     65 H133       87.7432  -88.1780  -15.3311 H         1 COA         0.0487
     66 H141       86.1780  -86.9326  -17.8451 H         1 COA         0.0487
     67 H142       85.8437  -86.5184  -16.1295 H         1 COA         0.0487
     68 H143       84.5265  -87.1522  -17.1735 H         1 COA         0.0487
     69 H10        85.5087  -90.1600  -15.0118 H         1 COA         0.0804
     70 HO1        86.5501  -88.1036  -13.8363 H         1 COA         0.4224
     71 HN8        83.5757  -87.5785  -14.0977 H         1 COA         0.3075
     72 H71        81.2320  -87.2366  -15.1965 H         1 COA         0.0765
     73 H72        81.1319  -89.0242  -15.3425 H         1 COA         0.0765
     74 H61        81.4621  -87.4441  -12.7195 H         1 COA         0.0820
     75 H62        79.9511  -88.2397  -13.2766 H         1 COA         0.0820
     76 HN4        81.7547  -88.3956  -10.9785 H         1 COA         0.3264
     77 H31        82.9779  -91.2173  -11.0242 H         1 COA         0.0672
     78 H32        82.8431  -90.1313   -9.5998 H         1 COA         0.0672
     79 H21        80.3736  -90.6017   -9.5181 H         1 COA         0.0798
     80 H22        80.5724  -91.7559  -10.8800 H         1 COA         0.0798
     81 HS1        80.6217  -93.2588   -8.4145 H         1 COA         0.2092
     82 H82        88.6480  -85.2639  -14.4612 H         1 COA         0.4762
     83 H83        88.6605  -80.5408  -16.2015 H         1 COA         0.5022
@<TRIPOS>BOND
     1    1    2 ar
     2    1    6 ar
     3    1   82 1
     4    2    3 ar
     5    2   49 1
     6    3    4 ar
     7    4    5 ar
     8    4   10 ar
     9    5    6 ar
    10    5    8 ar
    11    6    7 2
    12    7   50 1
    13    8    9 ar
    14    8   83 1
    15    9   10 ar
    16    9   51 1
    17   10   11 1
    18   11   12 1
    19   11   21 1
    20   11   52 1
    21   12   13 1
    22   12   14 1
    23   12   53 1
    24   13   54 1
    25   14   15 1
    26   14   20 1
    27   14   55 1
    28   15   16 1
    29   16   17 2
    30   16   18 1
    31   16   19 1
    32   19   56 1
    33   20   21 1
    34   20   22 1
    35   20   57 1
    36   22   23 1
    37   22   58 1
    38   22   59 1
    39   23   24 1
    40   24   25 2
    41   24   26 1
    42   24   27 1
    43   27   28 1
    44   28   29 2
    45   28   30 1
    46   28   31 1
    47   30   60 1
    48   31   33 1
    49   32   33 1
    50   32   34 1
    51   32   35 1
    52   32   36 1
    53   33   61 1
    54   33   62 1
    55   34   63 1
    56   34   64 1
    57   34   65 1
    58   35   66 1
    59   35   67 1
    60   35   68 1
    61   36   37 1
    62   36   38 1
    63   36   69 1
    64   37   70 1
    65   38   39 2
    66   38   40 am
    67   40   41 1
    68   40   71 1
    69   41   42 1
    70   41   72 1
    71   41   73 1
    72   42   43 1
    73   42   74 1
    74   42   75 1
    75   43   44 2
    76   43   45 am
    77   45   46 1
    78   45   76 1
    79   46   47 1
    80   46   77 1
    81   46   78 1
    82   47   48 1
    83   47   79 1
    84   47   80 1
    85   48   81 1
@<TRIPOS>SUBSTRUCTURE
     1 COA         1 GROUP   0 A     ****
@<TRIPOS>MOLECULE
[4-hydroxy-2-[[[hydroxy-[3-hydroxy-2,2-dimethyl-4-oxo-4-[[3-oxo-3-(2-sulfanylethylamino)propyl]amino]butoxy]phosphoryl]oxy-oxido-phosphoryl]oxymethyl]-5-(6-imino-7,8-dihydro-1~{H}-purin-8-ylium-9-yl)tetrahydrofuran-3-yl] hydrogen phosphate
   83    85     1     0     0
SMALL
USER_CHARGES

@<TRIPOS>ATOM
      1 N1A        88.6040  -84.6940  -15.4010 N.pl3     1 COA        -0.8413
      2 C2A        88.5170  -85.3620  -16.6140 C.ar      1 COA         0.6586
      3 N3A        88.4530  -84.8110  -17.8270 N.ar      1 COA        -0.5655
      4 C4A        88.4890  -83.4640  -17.7910 C.ar      1 COA         0.2817
      5 C5A        88.5780  -82.6230  -16.6440 C.ar      1 COA        -0.1395
      6 C6A        88.6370  -83.3150  -15.3450 C.ar      1 COA         0.7229
      7 N6A        88.7190  -82.6940  -14.2090 N.2       1 COA        -0.8268
      8 N7A        88.5930  -81.3110  -16.9840 N.pl3     1 COA        -0.4904
      9 C8A        88.5140  -81.2930  -18.3130 C.cat     1 COA         0.2572
     10 N9A        88.4440  -82.5690  -18.8600 N.pl3     1 COA        -0.4186
     11 C1B        88.2830  -82.8930  -20.3050 C.3       1 COA         0.3688
     12 C2B        89.1690  -84.0030  -20.8100 C.3       1 COA         0.0857
     13 O2B        90.4930  -83.5370  -21.0680 O.3       1 COA        -0.5226
     14 C3B        88.4470  -84.3520  -22.1030 C.3       1 COA         0.2145
     15 O3B        88.5340  -83.3380  -23.0200 O.3       1 COA        -0.5372
     16 P3B        88.5670  -83.7630  -24.6320 P.3       1 COA         1.4263
     17 O7A        89.7760  -84.7730  -24.8120 O.2       1 COA        -0.8209
     18 O8A        88.8680  -82.4540  -25.4620 O.3       1 COA        -0.8209
     19 O9A        87.1870  -84.4450  -25.0050 O.3       1 COA        -0.7797
     20 C4B        86.9970  -84.4910  -21.5560 C.3       1 COA         0.0908
     21 O4B        86.9570  -83.4610  -20.4760 O.3       1 COA        -0.4085
     22 C5B        86.5780  -85.7930  -20.9340 C.3       1 COA         0.1658
     23 O5B        86.6630  -86.7650  -22.0150 O.3       1 COA        -0.5780
     24 P1A        85.5120  -87.8990  -22.1320 P.3       1 COA         1.5916
     25 O1A        85.9730  -88.8420  -23.2310 O.2       1 COA        -0.8498
     26 O2A        84.1350  -87.3250  -22.2760 O.3       1 COA        -0.8498
     27 O3A        85.5440  -88.6720  -20.8060 O.3       1 COA        -0.7960
     28 P2A        86.5260  -89.8380  -20.2320 P.3       1 COA         1.7849
     29 O4A        85.9410  -91.2220  -20.3870 O.2       1 COA        -0.8422
     30 O5A        87.9130  -89.7660  -20.8150 O.3       1 COA        -0.7965
     31 O6A        86.6310  -89.4110  -18.6740 O.3       1 COA        -0.5824
     32 CBP        85.9600  -88.6360  -16.5360 C.3       1 COA        -0.0732
     33 CCP        85.5210  -89.4080  -17.8120 C.3       1 COA         0.1931
     34 CDP        87.4920  -88.7900  -16.2100 C.3       1 COA        -0.0861
     35 CEP        85.6020  -87.2100  -16.9500 C.3       1 COA        -0.0861
     36 CAP        85.1850  -89.1370  -15.2540 C.3       1 COA         0.0846
     37 OAP        85.5020  -88.2660  -14.1280 O.3       1 COA        -0.5931
     38 C9P        83.6680  -89.1660  -15.4160 C.2       1 COA         0.6239
     39 O9P        83.0890  -90.0690  -16.2240 O.2       1 COA        -0.6169
     40 N8P        82.9960  -88.2770  -14.7190 N.am      1 COA        -0.5559
     41 C7P        81.5360  -88.1930  -14.7460 C.3       1 COA         0.0947
     42 C6P        81.0500  -88.2840  -13.2980 C.3       1 COA        -0.1923
     43 C5P        81.4830  -89.5720  -12.6330 C.2       1 COA         0.6657
     44 O5P        81.5080  -90.7220  -13.2480 O.2       1 COA        -0.6210
     45 N4P        81.8280  -89.4210  -11.3700 N.am      1 COA        -0.5828
     46 C3P        82.3050  -90.5540  -10.4610 C.3       1 COA         0.0939
     47 C2P        81.0660  -91.3020  -10.0080 C.3       1 COA        -0.0269
     48 S1P        81.4370  -92.6410   -8.8190 S.3       1 COA        -0.3793
     49 H2A        88.4990  -86.4230  -16.5720 H         1 COA         0.0762
     50 H61A       88.7590  -83.2120  -13.3610 H         1 COA         0.4085
     51 H8A        88.5050  -80.4030  -18.8910 H         1 COA         0.3460
     52 H1B        88.4770  -81.9515  -20.8397 H         1 COA         0.1389
     53 H2B        89.3598  -84.8274  -20.1072 H         1 COA         0.0353
     54 HO2A       91.1454  -83.2437  -20.2324 H         1 COA         0.3762
     55 H3B        88.8713  -85.1623  -22.7140 H         1 COA         0.0913
     56 HOA9       86.8712  -85.3646  -24.4906 H         1 COA         0.4293
     57 H4B        86.2834  -84.3952  -22.3877 H         1 COA         0.1264
     58 H51A       87.2605  -86.0410  -20.1077 H         1 COA         0.0544
     59 H52A       85.5523  -85.7014  -20.5474 H         1 COA         0.0544
     60 HOA5       88.0786  -90.0175  -21.8730 H         1 COA         0.4686
     61 H121       84.6753  -88.9064  -18.3050 H         1 COA         0.0246
     62 H122       85.2421  -90.4441  -17.5697 H         1 COA         0.0246
     63 H131       88.0860  -88.4540  -17.0727 H         1 COA         0.0486
     64 H132       87.7175  -89.8456  -15.9983 H         1 COA         0.0486
     65 H133       87.7432  -88.1780  -15.3311 H         1 COA         0.0486
     66 H141       86.1780  -86.9326  -17.8451 H         1 COA         0.0486
     67 H142       85.8437  -86.5184  -16.1295 H         1 COA         0.0486
     68 H143       84.5265  -87.1522  -17.1735 H         1 COA         0.0486
     69 H10        85.5087  -90.1600  -15.0118 H         1 COA         0.0759
     70 HO1        86.5501  -88.1036  -13.8363 H         1 COA         0.4244
     71 HN8        83.5757  -87.5785  -14.0977 H         1 COA         0.3092
     72 H71        81.2320  -87.2366  -15.1965 H         1 COA         0.0769
     73 H72        81.1319  -89.0242  -15.3425 H         1 COA         0.0769
     74 H61        81.4621  -87.4441  -12.7195 H         1 COA         0.0819
     75 H62        79.9511  -88.2397  -13.2766 H         1 COA         0.0819
     76 HN4        81.7547  -88.3956  -10.9785 H         1 COA         0.3276
     77 H31        82.9779  -91.2173  -11.0242 H         1 COA         0.0670
     78 H32        82.8431  -90.1313   -9.5998 H         1 COA         0.0670
     79 H21        80.3736  -90.6017   -9.5181 H         1 COA         0.0796
     80 H22        80.5724  -91.7559  -10.8800 H         1 COA         0.0796
     81 HS1        80.6217  -93.2588   -8.4145 H         1 COA         0.2114
     82 H82        88.6480  -85.2639  -14.4612 H         1 COA         0.4535
     83 H83        88.6605  -80.5408  -16.2015 H         1 COA         0.5163
@<TRIPOS>BOND
     1    1    2 ar
     2    1    6 ar
     3    1   82 1
     4    2    3 ar
     5    2   49 1
     6    3    4 ar
     7    4    5 ar
     8    4   10 ar
     9    5    6 ar
    10    5    8 ar
    11    6    7 2
    12    7   50 1
    13    8    9 ar
    14    8   83 1
    15    9   10 ar
    16    9   51 1
    17   10   11 1
    18   11   12 1
    19   11   21 1
    20   11   52 1
    21   12   13 1
    22   12   14 1
    23   12   53 1
    24   13   54 1
    25   14   15 1
    26   14   20 1
    27   14   55 1
    28   15   16 1
    29   16   17 2
    30   16   18 1
    31   16   19 1
    32   19   56 1
    33   20   21 1
    34   20   22 1
    35   20   57 1
    36   22   23 1
    37   22   58 1
    38   22   59 1
    39   23   24 1
    40   24   25 2
    41   24   26 1
    42   24   27 1
    43   27   28 1
    44   28   29 2
    45   28   30 1
    46   28   31 1
    47   30   60 1
    48   31   33 1
    49   32   33 1
    50   32   34 1
    51   32   35 1
    52   32   36 1
    53   33   61 1
    54   33   62 1
    55   34   63 1
    56   34   64 1
    57   34   65 1
    58   35   66 1
    59   35   67 1
    60   35   68 1
    61   36   37 1
    62   36   38 1
    63   36   69 1
    64   37   70 1
    65   38   39 2
    66   38   40 am
    67   40   41 1
    68   40   71 1
    69   41   42 1
    70   41   72 1
    71   41   73 1
    72   42   43 1
    73   42   74 1
    74   42   75 1
    75   43   44 2
    76   43   45 am
    77   45   46 1
    78   45   76 1
    79   46   47 1
    80   46   77 1
    81   46   78 1
    82   47   48 1
    83   47   79 1
    84   47   80 1
    85   48   81 1
@<TRIPOS>SUBSTRUCTURE
     1 COA         1 GROUP   0 A     ****
@<TRIPOS>MOLECULE
[5-(6-amino-1,2-dihydropurin-2-ylium-9-yl)-4-hydroxy-2-[[[hydroxy-[3-hydroxy-2,2-dimethyl-4-oxo-4-[[3-oxo-3-(2-sulfanylethylamino)propyl]amino]butoxy]phosphoryl]oxy-oxido-phosphoryl]oxymethyl]tetrahydrofuran-3-yl] phosphate
   82    84     1     0     0
SMALL
USER_CHARGES

@<TRIPOS>ATOM
      1 N1A        88.6040  -84.6940  -15.4010 N.pl3     1 COA        -0.6378
      2 C2A        88.5170  -85.3620  -16.6140 C.cat     1 COA         0.2513
      3 N3A        88.4530  -84.8110  -17.8270 N.ar      1 COA        -0.4805
      4 C4A        88.4890  -83.4640  -17.7910 C.ar      1 COA         0.5907
      5 C5A        88.5780  -82.6230  -16.6440 C.ar      1 COA        -0.1762
      6 C6A        88.6370  -83.3150  -15.3450 C.ar      1 COA         0.4554
      7 N6A        88.7190  -82.6940  -14.2090 N.pl3     1 COA        -0.8613
      8 N7A        88.5930  -81.3110  -16.9840 N.ar      1 COA        -0.5650
      9 C8A        88.5140  -81.2930  -18.3130 C.ar      1 COA         0.5956
     10 N9A        88.4440  -82.5690  -18.8600 N.pl3     1 COA        -0.5289
     11 C1B        88.2830  -82.8930  -20.3050 C.3       1 COA         0.3627
     12 C2B        89.1690  -84.0030  -20.8100 C.3       1 COA         0.0806
     13 O2B        90.4930  -83.5370  -21.0680 O.3       1 COA        -0.6300
     14 C3B        88.4470  -84.3520  -22.1030 C.3       1 COA         0.2190
     15 O3B        88.5340  -83.3380  -23.0200 O.3       1 COA        -0.5367
     16 P3B        88.5670  -83.7630  -24.6320 P.3       1 COA         1.2941
     17 O7A        89.7760  -84.7730  -24.8120 O.2       1 COA        -0.9092
     18 O8A        88.8680  -82.4540  -25.4620 O.3       1 COA        -0.9092
     19 O9A        87.1870  -84.4450  -25.0050 O.3       1 COA        -0.9092
     20 C4B        86.9970  -84.4910  -21.5560 C.3       1 COA         0.0787
     21 O4B        86.9570  -83.4610  -20.4760 O.3       1 COA        -0.4022
     22 C5B        86.5780  -85.7930  -20.9340 C.3       1 COA         0.1573
     23 O5B        86.6630  -86.7650  -22.0150 O.3       1 COA        -0.5952
     24 P1A        85.5120  -87.8990  -22.1320 P.3       1 COA         1.5643
     25 O1A        85.9730  -88.8420  -23.2310 O.2       1 COA        -0.8383
     26 O2A        84.1350  -87.3250  -22.2760 O.3       1 COA        -0.8383
     27 O3A        85.5440  -88.6720  -20.8060 O.3       1 COA        -0.7935
     28 P2A        86.5260  -89.8380  -20.2320 P.3       1 COA         1.7815
     29 O4A        85.9410  -91.2220  -20.3870 O.2       1 COA        -0.8303
     30 O5A        87.9130  -89.7660  -20.8150 O.3       1 COA        -0.8027
     31 O6A        86.6310  -89.4110  -18.6740 O.3       1 COA        -0.5883
     32 CBP        85.9600  -88.6360  -16.5360 C.3       1 COA        -0.0777
     33 CCP        85.5210  -89.4080  -17.8120 C.3       1 COA         0.2092
     34 CDP        87.4920  -88.7900  -16.2100 C.3       1 COA        -0.0950
     35 CEP        85.6020  -87.2100  -16.9500 C.3       1 COA        -0.0950
     36 CAP        85.1850  -89.1370  -15.2540 C.3       1 COA         0.0899
     37 OAP        85.5020  -88.2660  -14.1280 O.3       1 COA        -0.5845
     38 C9P        83.6680  -89.1660  -15.4160 C.2       1 COA         0.6401
     39 O9P        83.0890  -90.0690  -16.2240 O.2       1 COA        -0.6174
     40 N8P        82.9960  -88.2770  -14.7190 N.am      1 COA        -0.5810
     41 C7P        81.5360  -88.1930  -14.7460 C.3       1 COA         0.1071
     42 C6P        81.0500  -88.2840  -13.2980 C.3       1 COA        -0.1812
     43 C5P        81.4830  -89.5720  -12.6330 C.2       1 COA         0.6588
     44 O5P        81.5080  -90.7220  -13.2480 O.2       1 COA        -0.6049
     45 N4P        81.8280  -89.4210  -11.3700 N.am      1 COA        -0.5681
     46 C3P        82.3050  -90.5540  -10.4610 C.3       1 COA         0.0860
     47 C2P        81.0660  -91.3020  -10.0080 C.3       1 COA        -0.0327
     48 S1P        81.4370  -92.6410   -8.8190 S.3       1 COA        -0.3766
     49 H2A        88.4990  -86.4230  -16.5720 H         1 COA         0.2079
     50 H61A       88.7598  -83.2668  -13.2708 H         1 COA         0.4622
     51 H62A       88.7477  -81.5947  -14.1840 H         1 COA         0.4622
     52 H8A        88.5050  -80.4030  -18.8910 H         1 COA         0.1624
     53 H1B        88.4770  -81.9515  -20.8397 H         1 COA         0.1230
     54 H2B        89.3598  -84.8274  -20.1072 H         1 COA         0.0434
     55 HO2A       91.1454  -83.2437  -20.2324 H         1 COA         0.4699
     56 H3B        88.8713  -85.1623  -22.7140 H         1 COA         0.1090
     57 H4B        86.2834  -84.3952  -22.3877 H         1 COA         0.1511
     58 H51A       87.2605  -86.0410  -20.1077 H         1 COA         0.0288
     59 H52A       85.5523  -85.7014  -20.5474 H         1 COA         0.0288
     60 HOA5       88.0786  -90.0175  -21.8730 H         1 COA         0.4643
     61 H121       84.6753  -88.9064  -18.3050 H         1 COA         0.0406
     62 H122       85.2421  -90.4441  -17.5697 H         1 COA         0.0406
     63 H131       88.0860  -88.4540  -17.0727 H         1 COA         0.0467
     64 H132       87.7175  -89.8456  -15.9983 H         1 COA         0.0467
     65 H133       87.7432  -88.1780  -15.3311 H         1 COA         0.0467
     66 H141       86.1780  -86.9326  -17.8451 H         1 COA         0.0467
     67 H142       85.8437  -86.5184  -16.1295 H         1 COA         0.0467
     68 H143       84.5265  -87.1522  -17.1735 H         1 COA         0.0467
     69 H10        85.5087  -90.1600  -15.0118 H         1 COA         0.0724
     70 HO1        86.5501  -88.1036  -13.8363 H         1 COA         0.4264
     71 HN8        83.5757  -87.5785  -14.0977 H         1 COA         0.3128
     72 H71        81.2320  -87.2366  -15.1965 H         1 COA         0.0723
     73 H72        81.1319  -89.0242  -15.3425 H         1 COA         0.0723
     74 H61        81.4621  -87.4441  -12.7195 H         1 COA         0.0715
     75 H62        79.9511  -88.2397  -13.2766 H         1 COA         0.0715
     76 HN4        81.7547  -88.3956  -10.9785 H         1 COA         0.3113
     77 H31        82.9779  -91.2173  -11.0242 H         1 COA         0.0640
     78 H32        82.8431  -90.1313   -9.5998 H         1 COA         0.0640
     79 H21        80.3736  -90.6017   -9.5181 H         1 COA         0.0833
     80 H22        80.5724  -91.7559  -10.8800 H         1 COA         0.0833
     81 HS1        80.6217  -93.2588   -8.4145 H         1 COA         0.1937
     82 H82        88.6480  -85.2639  -14.4612 H         1 COA         0.4516
@<TRIPOS>BOND
     1    1    2 ar
     2    1    6 ar
     3    1   82 1
     4    2    3 ar
     5    2   49 1
     6    3    4 ar
     7    4    5 ar
     8    4   10 ar
     9    5    6 ar
    10    5    8 ar
    11    6    7 1
    12    7   50 1
    13    7   51 1
    14    8    9 ar
    15    9   10 ar
    16    9   52 1
    17   10   11 1
    18   11   12 1
    19   11   21 1
    20   11   53 1
    21   12   13 1
    22   12   14 1
    23   12   54 1
    24   13   55 1
    25   14   15 1
    26   14   20 1
    27   14   56 1
    28   15   16 1
    29   16   17 2
    30   16   18 1
    31   16   19 1
    32   20   21 1
    33   20   22 1
    34   20   57 1
    35   22   23 1
    36   22   58 1
    37   22   59 1
    38   23   24 1
    39   24   25 2
    40   24   26 1
    41   24   27 1
    42   27   28 1
    43   28   29 2
    44   28   30 1
    45   28   31 1
    46   30   60 1
    47   31   33 1
    48   32   33 1
    49   32   34 1
    50   32   35 1
    51   32   36 1
    52   33   61 1
    53   33   62 1
    54   34   63 1
    55   34   64 1
    56   34   65 1
    57   35   66 1
    58   35   67 1
    59   35   68 1
    60   36   37 1
    61   36   38 1
    62   36   69 1
    63   37   70 1
    64   38   39 2
    65   38   40 am
    66   40   41 1
    67   40   71 1
    68   41   42 1
    69   41   72 1
    70   41   73 1
    71   42   43 1
    72   42   74 1
    73   42   75 1
    74   43   44 2
    75   43   45 am
    76   45   46 1
    77   45   76 1
    78   46   47 1
    79   46   77 1
    80   46   78 1
    81   47   48 1
    82   47   79 1
    83   47   80 1
    84   48   81 1
@<TRIPOS>SUBSTRUCTURE
     1 COA         1 GROUP   0 A     ****
@<TRIPOS>MOLECULE
[5-(6-amino-1,2-dihydropurin-2-ylium-9-yl)-4-hydroxy-2-[[hydroxy-[[3-hydroxy-2,2-dimethyl-4-oxo-4-[[3-oxo-3-(2-sulfanylethylamino)propyl]amino]butoxy]-oxido-phosphoryl]oxy-phosphoryl]oxymethyl]tetrahydrofuran-3-yl] phosphate
   82    84     1     0     0
SMALL
USER_CHARGES

@<TRIPOS>ATOM
      1 N1A        88.6040  -84.6940  -15.4010 N.pl3     1 COA        -0.6366
      2 C2A        88.5170  -85.3620  -16.6140 C.cat     1 COA         0.2564
      3 N3A        88.4530  -84.8110  -17.8270 N.ar      1 COA        -0.4966
      4 C4A        88.4890  -83.4640  -17.7910 C.ar      1 COA         0.5732
      5 C5A        88.5780  -82.6230  -16.6440 C.ar      1 COA        -0.1713
      6 C6A        88.6370  -83.3150  -15.3450 C.ar      1 COA         0.4617
      7 N6A        88.7190  -82.6940  -14.2090 N.pl3     1 COA        -0.8559
      8 N7A        88.5930  -81.3110  -16.9840 N.ar      1 COA        -0.5612
      9 C8A        88.5140  -81.2930  -18.3130 C.ar      1 COA         0.5931
     10 N9A        88.4440  -82.5690  -18.8600 N.pl3     1 COA        -0.5468
     11 C1B        88.2830  -82.8930  -20.3050 C.3       1 COA         0.3630
     12 C2B        89.1690  -84.0030  -20.8100 C.3       1 COA         0.0565
     13 O2B        90.4930  -83.5370  -21.0680 O.3       1 COA        -0.5078
     14 C3B        88.4470  -84.3520  -22.1030 C.3       1 COA         0.2860
     15 O3B        88.5340  -83.3380  -23.0200 O.3       1 COA        -0.5066
     16 P3B        88.5670  -83.7630  -24.6320 P.3       1 COA         1.3044
     17 O7A        89.7760  -84.7730  -24.8120 O.2       1 COA        -0.9081
     18 O8A        88.8680  -82.4540  -25.4620 O.3       1 COA        -0.9081
     19 O9A        87.1870  -84.4450  -25.0050 O.3       1 COA        -0.9081
     20 C4B        86.9970  -84.4910  -21.5560 C.3       1 COA         0.0698
     21 O4B        86.9570  -83.4610  -20.4760 O.3       1 COA        -0.4160
     22 C5B        86.5780  -85.7930  -20.9340 C.3       1 COA         0.1704
     23 O5B        86.6630  -86.7650  -22.0150 O.3       1 COA        -0.5892
     24 P1A        85.5120  -87.8990  -22.1320 P.3       1 COA         1.7849
     25 O1A        85.9730  -88.8420  -23.2310 O.2       1 COA        -0.8788
     26 O2A        84.1350  -87.3250  -22.2760 O.3       1 COA        -0.8128
     27 O3A        85.5440  -88.6720  -20.8060 O.3       1 COA        -0.7929
     28 P2A        86.5260  -89.8380  -20.2320 P.3       1 COA         1.5659
     29 O4A        85.9410  -91.2220  -20.3870 O.2       1 COA        -0.8374
     30 O5A        87.9130  -89.7660  -20.8150 O.3       1 COA        -0.8374
     31 O6A        86.6310  -89.4110  -18.6740 O.3       1 COA        -0.5917
     32 CBP        85.9600  -88.6360  -16.5360 C.3       1 COA        -0.0410
     33 CCP        85.5210  -89.4080  -17.8120 C.3       1 COA         0.1771
     34 CDP        87.4920  -88.7900  -16.2100 C.3       1 COA        -0.0942
     35 CEP        85.6020  -87.2100  -16.9500 C.3       1 COA        -0.0942
     36 CAP        85.1850  -89.1370  -15.2540 C.3       1 COA         0.0891
     37 OAP        85.5020  -88.2660  -14.1280 O.3       1 COA        -0.5633
     38 C9P        83.6680  -89.1660  -15.4160 C.2       1 COA         0.6243
     39 O9P        83.0890  -90.0690  -16.2240 O.2       1 COA        -0.6223
     40 N8P        82.9960  -88.2770  -14.7190 N.am      1 COA        -0.5815
     41 C7P        81.5360  -88.1930  -14.7460 C.3       1 COA         0.1083
     42 C6P        81.0500  -88.2840  -13.2980 C.3       1 COA        -0.1752
     43 C5P        81.4830  -89.5720  -12.6330 C.2       1 COA         0.6578
     44 O5P        81.5080  -90.7220  -13.2480 O.2       1 COA        -0.6007
     45 N4P        81.8280  -89.4210  -11.3700 N.am      1 COA        -0.5673
     46 C3P        82.3050  -90.5540  -10.4610 C.3       1 COA         0.0869
     47 C2P        81.0660  -91.3020  -10.0080 C.3       1 COA        -0.0322
     48 S1P        81.4370  -92.6410   -8.8190 S.3       1 COA        -0.3788
     49 H2A        88.4990  -86.4230  -16.5720 H         1 COA         0.2154
     50 H61A       88.7598  -83.2668  -13.2708 H         1 COA         0.4651
     51 H62A       88.7477  -81.5947  -14.1840 H         1 COA         0.4651
     52 H8A        88.5050  -80.4030  -18.8910 H         1 COA         0.1564
     53 H1B        88.4770  -81.9515  -20.8397 H         1 COA         0.1174
     54 H2B        89.3598  -84.8274  -20.1072 H         1 COA         0.0185
     55 HO2A       91.1454  -83.2437  -20.2324 H         1 COA         0.3436
     56 H3B        88.8713  -85.1623  -22.7140 H         1 COA         0.0886
     57 H4B        86.2834  -84.3952  -22.3877 H         1 COA         0.1735
     58 H51A       87.2605  -86.0410  -20.1077 H         1 COA         0.0519
     59 H52A       85.5523  -85.7014  -20.5474 H         1 COA         0.0519
     60 HOA2       83.8791  -86.7250  -23.1617 H         1 COA         0.4512
     61 H121       84.6753  -88.9064  -18.3050 H         1 COA         0.0574
     62 H122       85.2421  -90.4441  -17.5697 H         1 COA         0.0574
     63 H131       88.0860  -88.4540  -17.0727 H         1 COA         0.0464
     64 H132       87.7175  -89.8456  -15.9983 H         1 COA         0.0464
     65 H133       87.7432  -88.1780  -15.3311 H         1 COA         0.0464
     66 H141       86.1780  -86.9326  -17.8451 H         1 COA         0.0464
     67 H142       85.8437  -86.5184  -16.1295 H         1 COA         0.0464
     68 H143       84.5265  -87.1522  -17.1735 H         1 COA         0.0464
     69 H10        85.5087  -90.1600  -15.0118 H         1 COA         0.0659
     70 HO1        86.5501  -88.1036  -13.8363 H         1 COA         0.3869
     71 HN8        83.5757  -87.5785  -14.0977 H         1 COA         0.3235
     72 H71        81.2320  -87.2366  -15.1965 H         1 COA         0.0683
     73 H72        81.1319  -89.0242  -15.3425 H         1 COA         0.0683
     74 H61        81.4621  -87.4441  -12.7195 H         1 COA         0.0726
     75 H62        79.9511  -88.2397  -13.2766 H         1 COA         0.0726
     76 HN4        81.7547  -88.3956  -10.9785 H         1 COA         0.3063
     77 H31        82.9779  -91.2173  -11.0242 H         1 COA         0.0615
     78 H32        82.8431  -90.1313   -9.5998 H         1 COA         0.0615
     79 H21        80.3736  -90.6017   -9.5181 H         1 COA         0.0824
     80 H22        80.5724  -91.7559  -10.8800 H         1 COA         0.0824
     81 HS1        80.6217  -93.2588   -8.4145 H         1 COA         0.1898
     82 H82        88.6480  -85.2639  -14.4612 H         1 COA         0.4516
@<TRIPOS>BOND
     1    1    2 ar
     2    1    6 ar
     3    1   82 1
     4    2    3 ar
     5    2   49 1
     6    3    4 ar
     7    4    5 ar
     8    4   10 ar
     9    5    6 ar
    10    5    8 ar
    11    6    7 1
    12    7   50 1
    13    7   51 1
    14    8    9 ar
    15    9   10 ar
    16    9   52 1
    17   10   11 1
    18   11   12 1
    19   11   21 1
    20   11   53 1
    21   12   13 1
    22   12   14 1
    23   12   54 1
    24   13   55 1
    25   14   15 1
    26   14   20 1
    27   14   56 1
    28   15   16 1
    29   16   17 2
    30   16   18 1
    31   16   19 1
    32   20   21 1
    33   20   22 1
    34   20   57 1
    35   22   23 1
    36   22   58 1
    37   22   59 1
    38   23   24 1
    39   24   25 2
    40   24   26 1
    41   24   27 1
    42   26   60 1
    43   27   28 1
    44   28   29 2
    45   28   30 1
    46   28   31 1
    47   31   33 1
    48   32   33 1
    49   32   34 1
    50   32   35 1
    51   32   36 1
    52   33   61 1
    53   33   62 1
    54   34   63 1
    55   34   64 1
    56   34   65 1
    57   35   66 1
    58   35   67 1
    59   35   68 1
    60   36   37 1
    61   36   38 1
    62   36   69 1
    63   37   70 1
    64   38   39 2
    65   38   40 am
    66   40   41 1
    67   40   71 1
    68   41   42 1
    69   41   72 1
    70   41   73 1
    71   42   43 1
    72   42   74 1
    73   42   75 1
    74   43   44 2
    75   43   45 am
    76   45   46 1
    77   45   76 1
    78   46   47 1
    79   46   77 1
    80   46   78 1
    81   47   48 1
    82   47   79 1
    83   47   80 1
    84   48   81 1
@<TRIPOS>SUBSTRUCTURE
     1 COA         1 GROUP   0 A     ****
@<TRIPOS>MOLECULE
[4-hydroxy-2-[[hydroxy-[[3-hydroxy-2,2-dimethyl-4-oxo-4-[[3-oxo-3-(2-sulfanylethylamino)propyl]amino]butoxy]-oxido-phosphoryl]oxy-phosphoryl]oxymethyl]-5-(6-imino-7,8-dihydro-1~{H}-purin-8-ylium-9-yl)tetrahydrofuran-3-yl] hydrogen phosphate
   83    85     1     0     0
SMALL
USER_CHARGES

@<TRIPOS>ATOM
      1 N1A        88.6040  -84.6940  -15.4010 N.pl3     1 COA        -0.8406
      2 C2A        88.5170  -85.3620  -16.6140 C.ar      1 COA         0.6682
      3 N3A        88.4530  -84.8110  -17.8270 N.ar      1 COA        -0.5725
      4 C4A        88.4890  -83.4640  -17.7910 C.ar      1 COA         0.2781
      5 C5A        88.5780  -82.6230  -16.6440 C.ar      1 COA        -0.1344
      6 C6A        88.6370  -83.3150  -15.3450 C.ar      1 COA         0.7221
      7 N6A        88.7190  -82.6940  -14.2090 N.2       1 COA        -0.8208
      8 N7A        88.5930  -81.3110  -16.9840 N.pl3     1 COA        -0.4822
      9 C8A        88.5140  -81.2930  -18.3130 C.cat     1 COA         0.2515
     10 N9A        88.4440  -82.5690  -18.8600 N.pl3     1 COA        -0.4101
     11 C1B        88.2830  -82.8930  -20.3050 C.3       1 COA         0.3676
     12 C2B        89.1690  -84.0030  -20.8100 C.3       1 COA         0.0853
     13 O2B        90.4930  -83.5370  -21.0680 O.3       1 COA        -0.5197
     14 C3B        88.4470  -84.3520  -22.1030 C.3       1 COA         0.2176
     15 O3B        88.5340  -83.3380  -23.0200 O.3       1 COA        -0.5442
     16 P3B        88.5670  -83.7630  -24.6320 P.3       1 COA         1.4333
     17 O7A        89.7760  -84.7730  -24.8120 O.2       1 COA        -0.8215
     18 O8A        88.8680  -82.4540  -25.4620 O.3       1 COA        -0.8215
     19 O9A        87.1870  -84.4450  -25.0050 O.3       1 COA        -0.7771
     20 C4B        86.9970  -84.4910  -21.5560 C.3       1 COA         0.0994
     21 O4B        86.9570  -83.4610  -20.4760 O.3       1 COA        -0.4090
     22 C5B        86.5780  -85.7930  -20.9340 C.3       1 COA         0.1706
     23 O5B        86.6630  -86.7650  -22.0150 O.3       1 COA        -0.5862
     24 P1A        85.5120  -87.8990  -22.1320 P.3       1 COA         1.7819
     25 O1A        85.9730  -88.8420  -23.2310 O.2       1 COA        -0.8323
     26 O2A        84.1350  -87.3250  -22.2760 O.3       1 COA        -0.8354
     27 O3A        85.5440  -88.6720  -20.8060 O.3       1 COA        -0.8067
     28 P2A        86.5260  -89.8380  -20.2320 P.3       1 COA         1.5588
     29 O4A        85.9410  -91.2220  -20.3870 O.2       1 COA        -0.8294
     30 O5A        87.9130  -89.7660  -20.8150 O.3       1 COA        -0.8294
     31 O6A        86.6310  -89.4110  -18.6740 O.3       1 COA        -0.5732
     32 CBP        85.9600  -88.6360  -16.5360 C.3       1 COA        -0.0472
     33 CCP        85.5210  -89.4080  -17.8120 C.3       1 COA         0.1804
     34 CDP        87.4920  -88.7900  -16.2100 C.3       1 COA        -0.0787
     35 CEP        85.6020  -87.2100  -16.9500 C.3       1 COA        -0.0787
     36 CAP        85.1850  -89.1370  -15.2540 C.3       1 COA         0.0914
     37 OAP        85.5020  -88.2660  -14.1280 O.3       1 COA        -0.5868
     38 C9P        83.6680  -89.1660  -15.4160 C.2       1 COA         0.6235
     39 O9P        83.0890  -90.0690  -16.2240 O.2       1 COA        -0.6445
     40 N8P        82.9960  -88.2770  -14.7190 N.am      1 COA        -0.5657
     41 C7P        81.5360  -88.1930  -14.7460 C.3       1 COA         0.1021
     42 C6P        81.0500  -88.2840  -13.2980 C.3       1 COA        -0.1771
     43 C5P        81.4830  -89.5720  -12.6330 C.2       1 COA         0.6627
     44 O5P        81.5080  -90.7220  -13.2480 O.2       1 COA        -0.6046
     45 N4P        81.8280  -89.4210  -11.3700 N.am      1 COA        -0.5904
     46 C3P        82.3050  -90.5540  -10.4610 C.3       1 COA         0.0961
     47 C2P        81.0660  -91.3020  -10.0080 C.3       1 COA        -0.0220
     48 S1P        81.4370  -92.6410   -8.8190 S.3       1 COA        -0.3956
     49 H2A        88.4990  -86.4230  -16.5720 H         1 COA         0.0809
     50 H61A       88.7590  -83.2120  -13.3610 H         1 COA         0.4139
     51 H8A        88.5050  -80.4030  -18.8910 H         1 COA         0.3049
     52 H1B        88.4770  -81.9515  -20.8397 H         1 COA         0.1422
     53 H2B        89.3598  -84.8274  -20.1072 H         1 COA         0.0374
     54 HO2A       91.1454  -83.2437  -20.2324 H         1 COA         0.3809
     55 H3B        88.8713  -85.1623  -22.7140 H         1 COA         0.1127
     56 HOA9       86.8712  -85.3646  -24.4906 H         1 COA         0.4328
     57 H4B        86.2834  -84.3952  -22.3877 H         1 COA         0.1341
     58 H51A       87.2605  -86.0410  -20.1077 H         1 COA         0.0514
     59 H52A       85.5523  -85.7014  -20.5474 H         1 COA         0.0514
     60 HOA2       83.8791  -86.7250  -23.1617 H         1 COA         0.4816
     61 H121       84.6753  -88.9064  -18.3050 H         1 COA         0.0282
     62 H122       85.2421  -90.4441  -17.5697 H         1 COA         0.0282
     63 H131       88.0860  -88.4540  -17.0727 H         1 COA         0.0449
     64 H132       87.7175  -89.8456  -15.9983 H         1 COA         0.0449
     65 H133       87.7432  -88.1780  -15.3311 H         1 COA         0.0449
     66 H141       86.1780  -86.9326  -17.8451 H         1 COA         0.0449
     67 H142       85.8437  -86.5184  -16.1295 H         1 COA         0.0449
     68 H143       84.5265  -87.1522  -17.1735 H         1 COA         0.0449
     69 H10        85.5087  -90.1600  -15.0118 H         1 COA         0.0507
     70 HO1        86.5501  -88.1036  -13.8363 H         1 COA         0.4144
     71 HN8        83.5757  -87.5785  -14.0977 H         1 COA         0.3430
     72 H71        81.2320  -87.2366  -15.1965 H         1 COA         0.0769
     73 H72        81.1319  -89.0242  -15.3425 H         1 COA         0.0769
     74 H61        81.4621  -87.4441  -12.7195 H         1 COA         0.0716
     75 H62        79.9511  -88.2397  -13.2766 H         1 COA         0.0716
     76 HN4        81.7547  -88.3956  -10.9785 H         1 COA         0.3113
     77 H31        82.9779  -91.2173  -11.0242 H         1 COA         0.0668
     78 H32        82.8431  -90.1313   -9.5998 H         1 COA         0.0668
     79 H21        80.3736  -90.6017   -9.5181 H         1 COA         0.0824
     80 H22        80.5724  -91.7559  -10.8800 H         1 COA         0.0824
     81 HS1        80.6217  -93.2588   -8.4145 H         1 COA         0.2080
     82 H82        88.6480  -85.2639  -14.4612 H         1 COA         0.4556
     83 H83        88.6605  -80.5408  -16.2015 H         1 COA         0.5184
@<TRIPOS>BOND
     1    1    2 ar
     2    1    6 ar
     3    1   82 1
     4    2    3 ar
     5    2   49 1
     6    3    4 ar
     7    4    5 ar
     8    4   10 ar
     9    5    6 ar
    10    5    8 ar
    11    6    7 2
    12    7   50 1
    13    8    9 ar
    14    8   83 1
    15    9   10 ar
    16    9   51 1
    17   10   11 1
    18   11   12 1
    19   11   21 1
    20   11   52 1
    21   12   13 1
    22   12   14 1
    23   12   53 1
    24   13   54 1
    25   14   15 1
    26   14   20 1
    27   14   55 1
    28   15   16 1
    29   16   17 2
    30   16   18 1
    31   16   19 1
    32   19   56 1
    33   20   21 1
    34   20   22 1
    35   20   57 1
    36   22   23 1
    37   22   58 1
    38   22   59 1
    39   23   24 1
    40   24   25 2
    41   24   26 1
    42   24   27 1
    43   26   60 1
    44   27   28 1
    45   28   29 2
    46   28   30 1
    47   28   31 1
    48   31   33 1
    49   32   33 1
    50   32   34 1
    51   32   35 1
    52   32   36 1
    53   33   61 1
    54   33   62 1
    55   34   63 1
    56   34   64 1
    57   34   65 1
    58   35   66 1
    59   35   67 1
    60   35   68 1
    61   36   37 1
    62   36   38 1
    63   36   69 1
    64   37   70 1
    65   38   39 2
    66   38   40 am
    67   40   41 1
    68   40   71 1
    69   41   42 1
    70   41   72 1
    71   41   73 1
    72   42   43 1
    73   42   74 1
    74   42   75 1
    75   43   44 2
    76   43   45 am
    77   45   46 1
    78   45   76 1
    79   46   47 1
    80   46   77 1
    81   46   78 1
    82   47   48 1
    83   47   79 1
    84   47   80 1
    85   48   81 1
@<TRIPOS>SUBSTRUCTURE
     1 COA         1 GROUP   0 A     ****
@<TRIPOS>MOLECULE
[4-hydroxy-2-[[hydroxy-[[3-hydroxy-2,2-dimethyl-4-oxo-4-[[3-oxo-3-(2-sulfanylethylamino)propyl]amino]butoxy]-oxido-phosphoryl]oxy-phosphoryl]oxymethyl]-5-(6-imino-7,8-dihydro-1~{H}-purin-8-ylium-9-yl)tetrahydrofuran-3-yl] hydrogen phosphate
   83    85     1     0     0
SMALL
USER_CHARGES

@<TRIPOS>ATOM
      1 N1A        88.6040  -84.6940  -15.4010 N.pl3     1 COA        -0.7879
      2 C2A        88.5170  -85.3620  -16.6140 C.ar      1 COA         0.6763
      3 N3A        88.4530  -84.8110  -17.8270 N.ar      1 COA        -0.5840
      4 C4A        88.4890  -83.4640  -17.7910 C.ar      1 COA         0.2948
      5 C5A        88.5780  -82.6230  -16.6440 C.ar      1 COA        -0.2006
      6 C6A        88.6370  -83.3150  -15.3450 C.ar      1 COA         0.7131
      7 N6A        88.7190  -82.6940  -14.2090 N.2       1 COA        -0.8177
      8 N7A        88.5930  -81.3110  -16.9840 N.pl3     1 COA        -0.5028
      9 C8A        88.5140  -81.2930  -18.3130 C.cat     1 COA         0.2630
     10 N9A        88.4440  -82.5690  -18.8600 N.pl3     1 COA        -0.4126
     11 C1B        88.2830  -82.8930  -20.3050 C.3       1 COA         0.3655
     12 C2B        89.1690  -84.0030  -20.8100 C.3       1 COA         0.0856
     13 O2B        90.4930  -83.5370  -21.0680 O.3       1 COA        -0.5190
     14 C3B        88.4470  -84.3520  -22.1030 C.3       1 COA         0.2153
     15 O3B        88.5340  -83.3380  -23.0200 O.3       1 COA        -0.5425
     16 P3B        88.5670  -83.7630  -24.6320 P.3       1 COA         1.4320
     17 O7A        89.7760  -84.7730  -24.8120 O.2       1 COA        -0.8205
     18 O8A        88.8680  -82.4540  -25.4620 O.3       1 COA        -0.8205
     19 O9A        87.1870  -84.4450  -25.0050 O.3       1 COA        -0.7758
     20 C4B        86.9970  -84.4910  -21.5560 C.3       1 COA         0.1001
     21 O4B        86.9570  -83.4610  -20.4760 O.3       1 COA        -0.4064
     22 C5B        86.5780  -85.7930  -20.9340 C.3       1 COA         0.1693
     23 O5B        86.6630  -86.7650  -22.0150 O.3       1 COA        -0.5879
     24 P1A        85.5120  -87.8990  -22.1320 P.3       1 COA         1.7828
     25 O1A        85.9730  -88.8420  -23.2310 O.2       1 COA        -0.8310
     26 O2A        84.1350  -87.3250  -22.2760 O.3       1 COA        -0.8384
     27 O3A        85.5440  -88.6720  -20.8060 O.3       1 COA        -0.8049
     28 P2A        86.5260  -89.8380  -20.2320 P.3       1 COA         1.5571
     29 O4A        85.9410  -91.2220  -20.3870 O.2       1 COA        -0.8280
     30 O5A        87.9130  -89.7660  -20.8150 O.3       1 COA        -0.8280
     31 O6A        86.6310  -89.4110  -18.6740 O.3       1 COA        -0.5717
     32 CBP        85.9600  -88.6360  -16.5360 C.3       1 COA        -0.0751
     33 CCP        85.5210  -89.4080  -17.8120 C.3       1 COA         0.1808
     34 CDP        87.4920  -88.7900  -16.2100 C.3       1 COA        -0.0795
     35 CEP        85.6020  -87.2100  -16.9500 C.3       1 COA        -0.0795
     36 CAP        85.1850  -89.1370  -15.2540 C.3       1 COA         0.0868
     37 OAP        85.5020  -88.2660  -14.1280 O.3       1 COA        -0.5916
     38 C9P        83.6680  -89.1660  -15.4160 C.2       1 COA         0.6325
     39 O9P        83.0890  -90.0690  -16.2240 O.2       1 COA        -0.6443
     40 N8P        82.9960  -88.2770  -14.7190 N.am      1 COA        -0.5670
     41 C7P        81.5360  -88.1930  -14.7460 C.3       1 COA         0.1005
     42 C6P        81.0500  -88.2840  -13.2980 C.3       1 COA        -0.1759
     43 C5P        81.4830  -89.5720  -12.6330 C.2       1 COA         0.6616
     44 O5P        81.5080  -90.7220  -13.2480 O.2       1 COA        -0.6067
     45 N4P        81.8280  -89.4210  -11.3700 N.am      1 COA        -0.5901
     46 C3P        82.3050  -90.5540  -10.4610 C.3       1 COA         0.0947
     47 C2P        81.0660  -91.3020  -10.0080 C.3       1 COA        -0.0206
     48 S1P        81.4370  -92.6410   -8.8190 S.3       1 COA        -0.3955
     49 H2A        88.4990  -86.4230  -16.5720 H         1 COA         0.0837
     50 H62A       88.7420  -81.7000  -14.1860 H         1 COA         0.4144
     51 H8A        88.5050  -80.4030  -18.8910 H         1 COA         0.3082
     52 H1B        88.4770  -81.9515  -20.8397 H         1 COA         0.1430
     53 H2B        89.3598  -84.8274  -20.1072 H         1 COA         0.0353
     54 HO2A       91.1454  -83.2437  -20.2324 H         1 COA         0.3824
     55 H3B        88.8713  -85.1623  -22.7140 H         1 COA         0.1140
     56 HOA9       86.8712  -85.3646  -24.4906 H         1 COA         0.4307
     57 H4B        86.2834  -84.3952  -22.3877 H         1 COA         0.1327
     58 H51A       87.2605  -86.0410  -20.1077 H         1 COA         0.0514
     59 H52A       85.5523  -85.7014  -20.5474 H         1 COA         0.0514
     60 HOA2       83.8791  -86.7250  -23.1617 H         1 COA         0.4818
     61 H121       84.6753  -88.9064  -18.3050 H         1 COA         0.0270
     62 H122       85.2421  -90.4441  -17.5697 H         1 COA         0.0270
     63 H131       88.0860  -88.4540  -17.0727 H         1 COA         0.0438
     64 H132       87.7175  -89.8456  -15.9983 H         1 COA         0.0438
     65 H133       87.7432  -88.1780  -15.3311 H         1 COA         0.0438
     66 H141       86.1780  -86.9326  -17.8451 H         1 COA         0.0438
     67 H142       85.8437  -86.5184  -16.1295 H         1 COA         0.0438
     68 H143       84.5265  -87.1522  -17.1735 H         1 COA         0.0438
     69 H10        85.5087  -90.1600  -15.0118 H         1 COA         0.0818
     70 HO1        86.5501  -88.1036  -13.8363 H         1 COA         0.4212
     71 HN8        83.5757  -87.5785  -14.0977 H         1 COA         0.3441
     72 H71        81.2320  -87.2366  -15.1965 H         1 COA         0.0770
     73 H72        81.1319  -89.0242  -15.3425 H         1 COA         0.0770
     74 H61        81.4621  -87.4441  -12.7195 H         1 COA         0.0723
     75 H62        79.9511  -88.2397  -13.2766 H         1 COA         0.0723
     76 HN4        81.7547  -88.3956  -10.9785 H         1 COA         0.3119
     77 H31        82.9779  -91.2173  -11.0242 H         1 COA         0.0669
     78 H32        82.8431  -90.1313   -9.5998 H         1 COA         0.0669
     79 H21        80.3736  -90.6017   -9.5181 H         1 COA         0.0820
     80 H22        80.5724  -91.7559  -10.8800 H         1 COA         0.0820
     81 HS1        80.6217  -93.2588   -8.4145 H         1 COA         0.2091
     82 H82        88.6480  -85.2639  -14.4612 H         1 COA         0.4798
     83 H83        88.6605  -80.5408  -16.2015 H         1 COA         0.5042
@<TRIPOS>BOND
     1    1    2 ar
     2    1    6 ar
     3    1   82 1
     4    2    3 ar
     5    2   49 1
     6    3    4 ar
     7    4    5 ar
     8    4   10 ar
     9    5    6 ar
    10    5    8 ar
    11    6    7 2
    12    7   50 1
    13    8    9 ar
    14    8   83 1
    15    9   10 ar
    16    9   51 1
    17   10   11 1
    18   11   12 1
    19   11   21 1
    20   11   52 1
    21   12   13 1
    22   12   14 1
    23   12   53 1
    24   13   54 1
    25   14   15 1
    26   14   20 1
    27   14   55 1
    28   15   16 1
    29   16   17 2
    30   16   18 1
    31   16   19 1
    32   19   56 1
    33   20   21 1
    34   20   22 1
    35   20   57 1
    36   22   23 1
    37   22   58 1
    38   22   59 1
    39   23   24 1
    40   24   25 2
    41   24   26 1
    42   24   27 1
    43   26   60 1
    44   27   28 1
    45   28   29 2
    46   28   30 1
    47   28   31 1
    48   31   33 1
    49   32   33 1
    50   32   34 1
    51   32   35 1
    52   32   36 1
    53   33   61 1
    54   33   62 1
    55   34   63 1
    56   34   64 1
    57   34   65 1
    58   35   66 1
    59   35   67 1
    60   35   68 1
    61   36   37 1
    62   36   38 1
    63   36   69 1
    64   37   70 1
    65   38   39 2
    66   38   40 am
    67   40   41 1
    68   40   71 1
    69   41   42 1
    70   41   72 1
    71   41   73 1
    72   42   43 1
    73   42   74 1
    74   42   75 1
    75   43   44 2
    76   43   45 am
    77   45   46 1
    78   45   76 1
    79   46   47 1
    80   46   77 1
    81   46   78 1
    82   47   48 1
    83   47   79 1
    84   47   80 1
    85   48   81 1
@<TRIPOS>SUBSTRUCTURE
     1 COA         1 GROUP   0 A     ****
@<TRIPOS>MOLECULE
[4-hydroxy-2-[[[[3-hydroxy-2,2-dimethyl-4-oxo-4-[[3-oxo-3-(2-sulfanylethylamino)propyl]amino]butoxy]-oxido-phosphoryl]oxy-oxido-phosphoryl]oxymethyl]-5-(6-imino-1~{H}-purin-9-yl)tetrahydrofuran-3-yl] hydrogen phosphate
   81    83     1     0     0
SMALL
USER_CHARGES

@<TRIPOS>ATOM
      1 N1A        88.6040  -84.6940  -15.4010 N.pl3     1 COA        -0.8189
      2 C2A        88.5170  -85.3620  -16.6140 C.ar      1 COA         0.5914
      3 N3A        88.4530  -84.8110  -17.8270 N.ar      1 COA        -0.5569
      4 C4A        88.4890  -83.4640  -17.7910 C.ar      1 COA         0.0271
      5 C5A        88.5780  -82.6230  -16.6440 C.ar      1 COA         0.1437
      6 C6A        88.6370  -83.3150  -15.3450 C.ar      1 COA         0.6199
      7 N6A        88.7190  -82.6940  -14.2090 N.2       1 COA        -0.9146
      8 N7A        88.5930  -81.3110  -16.9840 N.ar      1 COA        -0.6718
      9 C8A        88.5140  -81.2930  -18.3130 C.ar      1 COA         0.4666
     10 N9A        88.4440  -82.5690  -18.8600 N.pl3     1 COA        -0.1606
     11 C1B        88.2830  -82.8930  -20.3050 C.3       1 COA         0.2107
     12 C2B        89.1690  -84.0030  -20.8100 C.3       1 COA         0.0978
     13 O2B        90.4930  -83.5370  -21.0680 O.3       1 COA        -0.6037
     14 C3B        88.4470  -84.3520  -22.1030 C.3       1 COA         0.1432
     15 O3B        88.5340  -83.3380  -23.0200 O.3       1 COA        -0.5799
     16 P3B        88.5670  -83.7630  -24.6320 P.3       1 COA         1.4250
     17 O7A        89.7760  -84.7730  -24.8120 O.2       1 COA        -0.8271
     18 O8A        88.8680  -82.4540  -25.4620 O.3       1 COA        -0.8271
     19 O9A        87.1870  -84.4450  -25.0050 O.3       1 COA        -0.7919
     20 C4B        86.9970  -84.4910  -21.5560 C.3       1 COA         0.1076
     21 O4B        86.9570  -83.4610  -20.4760 O.3       1 COA        -0.4103
     22 C5B        86.5780  -85.7930  -20.9340 C.3       1 COA         0.1692
     23 O5B        86.6630  -86.7650  -22.0150 O.3       1 COA        -0.5752
     24 P1A        85.5120  -87.8990  -22.1320 P.3       1 COA         1.5922
     25 O1A        85.9730  -88.8420  -23.2310 O.2       1 COA        -0.8787
     26 O2A        84.1350  -87.3250  -22.2760 O.3       1 COA        -0.8787
     27 O3A        85.5440  -88.6720  -20.8060 O.3       1 COA        -0.8187
     28 P2A        86.5260  -89.8380  -20.2320 P.3       1 COA         1.5979
     29 O4A        85.9410  -91.2220  -20.3870 O.2       1 COA        -0.8740
     30 O5A        87.9130  -89.7660  -20.8150 O.3       1 COA        -0.8740
     31 O6A        86.6310  -89.4110  -18.6740 O.3       1 COA        -0.6009
     32 CBP        85.9600  -88.6360  -16.5360 C.3       1 COA        -0.0999
     33 CCP        85.5210  -89.4080  -17.8120 C.3       1 COA         0.2213
     34 CDP        87.4920  -88.7900  -16.2100 C.3       1 COA        -0.0884
     35 CEP        85.6020  -87.2100  -16.9500 C.3       1 COA        -0.0884
     36 CAP        85.1850  -89.1370  -15.2540 C.3       1 COA         0.1366
     37 OAP        85.5020  -88.2660  -14.1280 O.3       1 COA        -0.6228
     38 C9P        83.6680  -89.1660  -15.4160 C.2       1 COA         0.6663
     39 O9P        83.0890  -90.0690  -16.2240 O.2       1 COA        -0.5971
     40 N8P        82.9960  -88.2770  -14.7190 N.am      1 COA        -0.6108
     41 C7P        81.5360  -88.1930  -14.7460 C.3       1 COA         0.1206
     42 C6P        81.0500  -88.2840  -13.2980 C.3       1 COA        -0.1882
     43 C5P        81.4830  -89.5720  -12.6330 C.2       1 COA         0.6686
     44 O5P        81.5080  -90.7220  -13.2480 O.2       1 COA        -0.6155
     45 N4P        81.8280  -89.4210  -11.3700 N.am      1 COA        -0.5968
     46 C3P        82.3050  -90.5540  -10.4610 C.3       1 COA         0.0975
     47 C2P        81.0660  -91.3020  -10.0080 C.3       1 COA        -0.0170
     48 S1P        81.4370  -92.6410   -8.8190 S.3       1 COA        -0.4123
     49 H2A        88.4990  -86.4230  -16.5720 H         1 COA         0.0320
     50 H62A       88.7420  -81.7000  -14.1860 H         1 COA         0.4140
     51 H8A        88.5050  -80.4030  -18.8910 H         1 COA         0.1356
     52 H1B        88.4770  -81.9515  -20.8397 H         1 COA         0.0914
     53 H2B        89.3598  -84.8274  -20.1072 H         1 COA         0.0878
     54 HO2A       91.1454  -83.2437  -20.2324 H         1 COA         0.4276
     55 H3B        88.8713  -85.1623  -22.7140 H         1 COA         0.0965
     56 HOA9       86.8712  -85.3646  -24.4906 H         1 COA         0.4235
     57 H4B        86.2834  -84.3952  -22.3877 H         1 COA         0.1019
     58 H51A       87.2605  -86.0410  -20.1077 H         1 COA         0.0414
     59 H52A       85.5523  -85.7014  -20.5474 H         1 COA         0.0414
     60 H121       84.6753  -88.9064  -18.3050 H         1 COA         0.0236
     61 H122       85.2421  -90.4441  -17.5697 H         1 COA         0.0236
     62 H131       88.0860  -88.4540  -17.0727 H         1 COA         0.0386
     63 H132       87.7175  -89.8456  -15.9983 H         1 COA         0.0386
     64 H133       87.7432  -88.1780  -15.3311 H         1 COA         0.0386
     65 H141       86.1780  -86.9326  -17.8451 H         1 COA         0.0386
     66 H142       85.8437  -86.5184  -16.1295 H         1 COA         0.0386
     67 H143       84.5265  -87.1522  -17.1735 H         1 COA         0.0386
     68 H10        85.5087  -90.1600  -15.0118 H         1 COA         0.0232
     69 HO1        86.5501  -88.1036  -13.8363 H         1 COA         0.4792
     70 HN8        83.5757  -87.5785  -14.0977 H         1 COA         0.3086
     71 H71        81.2320  -87.2366  -15.1965 H         1 COA         0.0572
     72 H72        81.1319  -89.0242  -15.3425 H         1 COA         0.0572
     73 H61        81.4621  -87.4441  -12.7195 H         1 COA         0.0773
     74 H62        79.9511  -88.2397  -13.2766 H         1 COA         0.0773
     75 HN4        81.7547  -88.3956  -10.9785 H         1 COA         0.3101
     76 H31        82.9779  -91.2173  -11.0242 H         1 COA         0.0608
     77 H32        82.8431  -90.1313   -9.5998 H         1 COA         0.0608
     78 H21        80.3736  -90.6017   -9.5181 H         1 COA         0.0785
     79 H22        80.5724  -91.7559  -10.8800 H         1 COA         0.0785
     80 HS1        80.6217  -93.2588   -8.4145 H         1 COA         0.2247
     81 H81        88.6480  -85.2639  -14.4612 H         1 COA         0.4320
@<TRIPOS>BOND
     1    1    2 ar
     2    1    6 ar
     3    1   81 1
     4    2    3 ar
     5    2   49 1
     6    3    4 ar
     7    4    5 ar
     8    4   10 ar
     9    5    6 ar
    10    5    8 ar
    11    6    7 2
    12    7   50 1
    13    8    9 ar
    14    9   10 ar
    15    9   51 1
    16   10   11 1
    17   11   12 1
    18   11   21 1
    19   11   52 1
    20   12   13 1
    21   12   14 1
    22   12   53 1
    23   13   54 1
    24   14   15 1
    25   14   20 1
    26   14   55 1
    27   15   16 1
    28   16   17 2
    29   16   18 1
    30   16   19 1
    31   19   56 1
    32   20   21 1
    33   20   22 1
    34   20   57 1
    35   22   23 1
    36   22   58 1
    37   22   59 1
    38   23   24 1
    39   24   25 2
    40   24   26 1
    41   24   27 1
    42   27   28 1
    43   28   29 2
    44   28   30 1
    45   28   31 1
    46   31   33 1
    47   32   33 1
    48   32   34 1
    49   32   35 1
    50   32   36 1
    51   33   60 1
    52   33   61 1
    53   34   62 1
    54   34   63 1
    55   34   64 1
    56   35   65 1
    57   35   66 1
    58   35   67 1
    59   36   37 1
    60   36   38 1
    61   36   68 1
    62   37   69 1
    63   38   39 2
    64   38   40 am
    65   40   41 1
    66   40   70 1
    67   41   42 1
    68   41   71 1
    69   41   72 1
    70   42   43 1
    71   42   73 1
    72   42   74 1
    73   43   44 2
    74   43   45 am
    75   45   46 1
    76   45   75 1
    77   46   47 1
    78   46   76 1
    79   46   77 1
    80   47   48 1
    81   47   78 1
    82   47   79 1
    83   48   80 1
@<TRIPOS>SUBSTRUCTURE
     1 COA         1 GROUP   0 A     ****
@<TRIPOS>MOLECULE
[4-hydroxy-2-[[[[3-hydroxy-2,2-dimethyl-4-oxo-4-[[3-oxo-3-(2-sulfanylethylamino)propyl]amino]butoxy]-oxido-phosphoryl]oxy-oxido-phosphoryl]oxymethyl]-5-(6-imino-1~{H}-purin-9-yl)tetrahydrofuran-3-yl] hydrogen phosphate
   81    83     1     0     0
SMALL
USER_CHARGES

@<TRIPOS>ATOM
      1 N1A        88.6040  -84.6940  -15.4010 N.pl3     1 COA        -0.8627
      2 C2A        88.5170  -85.3620  -16.6140 C.ar      1 COA         0.5760
      3 N3A        88.4530  -84.8110  -17.8270 N.ar      1 COA        -0.5453
      4 C4A        88.4890  -83.4640  -17.7910 C.ar      1 COA         0.0086
      5 C5A        88.5780  -82.6230  -16.6440 C.ar      1 COA         0.2061
      6 C6A        88.6370  -83.3150  -15.3450 C.ar      1 COA         0.6186
      7 N6A        88.7190  -82.6940  -14.2090 N.2       1 COA        -0.8414
      8 N7A        88.5930  -81.3110  -16.9840 N.ar      1 COA        -0.6351
      9 C8A        88.5140  -81.2930  -18.3130 C.ar      1 COA         0.4540
     10 N9A        88.4440  -82.5690  -18.8600 N.pl3     1 COA        -0.1572
     11 C1B        88.2830  -82.8930  -20.3050 C.3       1 COA         0.2107
     12 C2B        89.1690  -84.0030  -20.8100 C.3       1 COA         0.0990
     13 O2B        90.4930  -83.5370  -21.0680 O.3       1 COA        -0.6075
     14 C3B        88.4470  -84.3520  -22.1030 C.3       1 COA         0.1411
     15 O3B        88.5340  -83.3380  -23.0200 O.3       1 COA        -0.5779
     16 P3B        88.5670  -83.7630  -24.6320 P.3       1 COA         1.4281
     17 O7A        89.7760  -84.7730  -24.8120 O.2       1 COA        -0.8278
     18 O8A        88.8680  -82.4540  -25.4620 O.3       1 COA        -0.8278
     19 O9A        87.1870  -84.4450  -25.0050 O.3       1 COA        -0.7952
     20 C4B        86.9970  -84.4910  -21.5560 C.3       1 COA         0.1093
     21 O4B        86.9570  -83.4610  -20.4760 O.3       1 COA        -0.4097
     22 C5B        86.5780  -85.7930  -20.9340 C.3       1 COA         0.1676
     23 O5B        86.6630  -86.7650  -22.0150 O.3       1 COA        -0.5739
     24 P1A        85.5120  -87.8990  -22.1320 P.3       1 COA         1.5897
     25 O1A        85.9730  -88.8420  -23.2310 O.2       1 COA        -0.8776
     26 O2A        84.1350  -87.3250  -22.2760 O.3       1 COA        -0.8776
     27 O3A        85.5440  -88.6720  -20.8060 O.3       1 COA        -0.8185
     28 P2A        86.5260  -89.8380  -20.2320 P.3       1 COA         1.5960
     29 O4A        85.9410  -91.2220  -20.3870 O.2       1 COA        -0.8740
     30 O5A        87.9130  -89.7660  -20.8150 O.3       1 COA        -0.8740
     31 O6A        86.6310  -89.4110  -18.6740 O.3       1 COA        -0.6012
     32 CBP        85.9600  -88.6360  -16.5360 C.3       1 COA        -0.1000
     33 CCP        85.5210  -89.4080  -17.8120 C.3       1 COA         0.2193
     34 CDP        87.4920  -88.7900  -16.2100 C.3       1 COA        -0.0876
     35 CEP        85.6020  -87.2100  -16.9500 C.3       1 COA        -0.0876
     36 CAP        85.1850  -89.1370  -15.2540 C.3       1 COA         0.1413
     37 OAP        85.5020  -88.2660  -14.1280 O.3       1 COA        -0.6195
     38 C9P        83.6680  -89.1660  -15.4160 C.2       1 COA         0.6619
     39 O9P        83.0890  -90.0690  -16.2240 O.2       1 COA        -0.6018
     40 N8P        82.9960  -88.2770  -14.7190 N.am      1 COA        -0.6098
     41 C7P        81.5360  -88.1930  -14.7460 C.3       1 COA         0.1202
     42 C6P        81.0500  -88.2840  -13.2980 C.3       1 COA        -0.1855
     43 C5P        81.4830  -89.5720  -12.6330 C.2       1 COA         0.6682
     44 O5P        81.5080  -90.7220  -13.2480 O.2       1 COA        -0.6175
     45 N4P        81.8280  -89.4210  -11.3700 N.am      1 COA        -0.5947
     46 C3P        82.3050  -90.5540  -10.4610 C.3       1 COA         0.0965
     47 C2P        81.0660  -91.3020  -10.0080 C.3       1 COA        -0.0163
     48 S1P        81.4370  -92.6410   -8.8190 S.3       1 COA        -0.4120
     49 H2A        88.4990  -86.4230  -16.5720 H         1 COA         0.0288
     50 H61A       88.7590  -83.2120  -13.3610 H         1 COA         0.3483
     51 H8A        88.5050  -80.4030  -18.8910 H         1 COA         0.1348
     52 H1B        88.4770  -81.9515  -20.8397 H         1 COA         0.0934
     53 H2B        89.3598  -84.8274  -20.1072 H         1 COA         0.0842
     54 HO2A       91.1454  -83.2437  -20.2324 H         1 COA         0.4300
     55 H3B        88.8713  -85.1623  -22.7140 H         1 COA         0.0983
     56 HOA9       86.8712  -85.3646  -24.4906 H         1 COA         0.4226
     57 H4B        86.2834  -84.3952  -22.3877 H         1 COA         0.1007
     58 H51A       87.2605  -86.0410  -20.1077 H         1 COA         0.0410
     59 H52A       85.5523  -85.7014  -20.5474 H         1 COA         0.0410
     60 H121       84.6753  -88.9064  -18.3050 H         1 COA         0.0245
     61 H122       85.2421  -90.4441  -17.5697 H         1 COA         0.0245
     62 H131       88.0860  -88.4540  -17.0727 H         1 COA         0.0382
     63 H132       87.7175  -89.8456  -15.9983 H         1 COA         0.0382
     64 H133       87.7432  -88.1780  -15.3311 H         1 COA         0.0382
     65 H141       86.1780  -86.9326  -17.8451 H         1 COA         0.0382
     66 H142       85.8437  -86.5184  -16.1295 H         1 COA         0.0382
     67 H143       84.5265  -87.1522  -17.1735 H         1 COA         0.0382
     68 H10        85.5087  -90.1600  -15.0118 H         1 COA         0.0243
     69 HO1        86.5501  -88.1036  -13.8363 H         1 COA         0.4782
     70 HN8        83.5757  -87.5785  -14.0977 H         1 COA         0.3113
     71 H71        81.2320  -87.2366  -15.1965 H         1 COA         0.0570
     72 H72        81.1319  -89.0242  -15.3425 H         1 COA         0.0570
     73 H61        81.4621  -87.4441  -12.7195 H         1 COA         0.0768
     74 H62        79.9511  -88.2397  -13.2766 H         1 COA         0.0768
     75 HN4        81.7547  -88.3956  -10.9785 H         1 COA         0.3110
     76 H31        82.9779  -91.2173  -11.0242 H         1 COA         0.0607
     77 H32        82.8431  -90.1313   -9.5998 H         1 COA         0.0607
     78 H21        80.3736  -90.6017   -9.5181 H         1 COA         0.0781
     79 H22        80.5724  -91.7559  -10.8800 H         1 COA         0.0781
     80 HS1        80.6217  -93.2588   -8.4145 H         1 COA         0.2235
     81 H81        88.6480  -85.2639  -14.4612 H         1 COA         0.4093
@<TRIPOS>BOND
     1    1    2 ar
     2    1    6 ar
     3    1   81 1
     4    2    3 ar
     5    2   49 1
     6    3    4 ar
     7    4    5 ar
     8    4   10 ar
     9    5    6 ar
    10    5    8 ar
    11    6    7 2
    12    7   50 1
    13    8    9 ar
    14    9   10 ar
    15    9   51 1
    16   10   11 1
    17   11   12 1
    18   11   21 1
    19   11   52 1
    20   12   13 1
    21   12   14 1
    22   12   53 1
    23   13   54 1
    24   14   15 1
    25   14   20 1
    26   14   55 1
    27   15   16 1
    28   16   17 2
    29   16   18 1
    30   16   19 1
    31   19   56 1
    32   20   21 1
    33   20   22 1
    34   20   57 1
    35   22   23 1
    36   22   58 1
    37   22   59 1
    38   23   24 1
    39   24   25 2
    40   24   26 1
    41   24   27 1
    42   27   28 1
    43   28   29 2
    44   28   30 1
    45   28   31 1
    46   31   33 1
    47   32   33 1
    48   32   34 1
    49   32   35 1
    50   32   36 1
    51   33   60 1
    52   33   61 1
    53   34   62 1
    54   34   63 1
    55   34   64 1
    56   35   65 1
    57   35   66 1
    58   35   67 1
    59   36   37 1
    60   36   38 1
    61   36   68 1
    62   37   69 1
    63   38   39 2
    64   38   40 am
    65   40   41 1
    66   40   70 1
    67   41   42 1
    68   41   71 1
    69   41   72 1
    70   42   43 1
    71   42   73 1
    72   42   74 1
    73   43   44 2
    74   43   45 am
    75   45   46 1
    76   45   75 1
    77   46   47 1
    78   46   76 1
    79   46   77 1
    80   47   48 1
    81   47   78 1
    82   47   79 1
    83   48   80 1
@<TRIPOS>SUBSTRUCTURE
     1 COA         1 GROUP   0 A     ****
@<TRIPOS>MOLECULE
[4-hydroxy-2-[[[hydroxy-[3-hydroxy-2,2-dimethyl-4-oxo-4-[[3-oxo-3-(2-sulfanylethylamino)propyl]amino]butoxy]phosphoryl]oxy-oxido-phosphoryl]oxymethyl]-5-(6-imino-1~{H}-purin-9-yl)tetrahydrofuran-3-yl] hydrogen phosphate
   82    84     1     0     0
SMALL
USER_CHARGES

@<TRIPOS>ATOM
      1 N1A        88.6040  -84.6940  -15.4010 N.pl3     1 COA        -0.8664
      2 C2A        88.5170  -85.3620  -16.6140 C.ar      1 COA         0.5990
      3 N3A        88.4530  -84.8110  -17.8270 N.ar      1 COA        -0.5509
      4 C4A        88.4890  -83.4640  -17.7910 C.ar      1 COA         0.0294
      5 C5A        88.5780  -82.6230  -16.6440 C.ar      1 COA         0.2023
      6 C6A        88.6370  -83.3150  -15.3450 C.ar      1 COA         0.6186
      7 N6A        88.7190  -82.6940  -14.2090 N.2       1 COA        -0.8350
      8 N7A        88.5930  -81.3110  -16.9840 N.ar      1 COA        -0.6266
      9 C8A        88.5140  -81.2930  -18.3130 C.ar      1 COA         0.4279
     10 N9A        88.4440  -82.5690  -18.8600 N.pl3     1 COA        -0.1614
     11 C1B        88.2830  -82.8930  -20.3050 C.3       1 COA         0.2169
     12 C2B        89.1690  -84.0030  -20.8100 C.3       1 COA         0.0988
     13 O2B        90.4930  -83.5370  -21.0680 O.3       1 COA        -0.5957
     14 C3B        88.4470  -84.3520  -22.1030 C.3       1 COA         0.1756
     15 O3B        88.5340  -83.3380  -23.0200 O.3       1 COA        -0.5693
     16 P3B        88.5670  -83.7630  -24.6320 P.3       1 COA         1.4336
     17 O7A        89.7760  -84.7730  -24.8120 O.2       1 COA        -0.8246
     18 O8A        88.8680  -82.4540  -25.4620 O.3       1 COA        -0.8246
     19 O9A        87.1870  -84.4450  -25.0050 O.3       1 COA        -0.8034
     20 C4B        86.9970  -84.4910  -21.5560 C.3       1 COA         0.1042
     21 O4B        86.9570  -83.4610  -20.4760 O.3       1 COA        -0.4094
     22 C5B        86.5780  -85.7930  -20.9340 C.3       1 COA         0.1692
     23 O5B        86.6630  -86.7650  -22.0150 O.3       1 COA        -0.5855
     24 P1A        85.5120  -87.8990  -22.1320 P.3       1 COA         1.5714
     25 O1A        85.9730  -88.8420  -23.2310 O.2       1 COA        -0.8270
     26 O2A        84.1350  -87.3250  -22.2760 O.3       1 COA        -0.8270
     27 O3A        85.5440  -88.6720  -20.8060 O.3       1 COA        -0.7926
     28 P2A        86.5260  -89.8380  -20.2320 P.3       1 COA         1.7816
     29 O4A        85.9410  -91.2220  -20.3870 O.2       1 COA        -0.8758
     30 O5A        87.9130  -89.7660  -20.8150 O.3       1 COA        -0.7928
     31 O6A        86.6310  -89.4110  -18.6740 O.3       1 COA        -0.5956
     32 CBP        85.9600  -88.6360  -16.5360 C.3       1 COA        -0.0362
     33 CCP        85.5210  -89.4080  -17.8120 C.3       1 COA         0.1828
     34 CDP        87.4920  -88.7900  -16.2100 C.3       1 COA        -0.0998
     35 CEP        85.6020  -87.2100  -16.9500 C.3       1 COA        -0.0998
     36 CAP        85.1850  -89.1370  -15.2540 C.3       1 COA         0.0904
     37 OAP        85.5020  -88.2660  -14.1280 O.3       1 COA        -0.5751
     38 C9P        83.6680  -89.1660  -15.4160 C.2       1 COA         0.6238
     39 O9P        83.0890  -90.0690  -16.2240 O.2       1 COA        -0.6301
     40 N8P        82.9960  -88.2770  -14.7190 N.am      1 COA        -0.5785
     41 C7P        81.5360  -88.1930  -14.7460 C.3       1 COA         0.1112
     42 C6P        81.0500  -88.2840  -13.2980 C.3       1 COA        -0.1806
     43 C5P        81.4830  -89.5720  -12.6330 C.2       1 COA         0.6571
     44 O5P        81.5080  -90.7220  -13.2480 O.2       1 COA        -0.6060
     45 N4P        81.8280  -89.4210  -11.3700 N.am      1 COA        -0.5623
     46 C3P        82.3050  -90.5540  -10.4610 C.3       1 COA         0.0823
     47 C2P        81.0660  -91.3020  -10.0080 C.3       1 COA        -0.0332
     48 S1P        81.4370  -92.6410   -8.8190 S.3       1 COA        -0.3744
     49 H2A        88.4990  -86.4230  -16.5720 H         1 COA         0.0371
     50 H61A       88.7590  -83.2120  -13.3610 H         1 COA         0.3579
     51 H8A        88.5050  -80.4030  -18.8910 H         1 COA         0.0992
     52 H1B        88.4770  -81.9515  -20.8397 H         1 COA         0.1112
     53 H2B        89.3598  -84.8274  -20.1072 H         1 COA         0.0598
     54 HO2A       91.1454  -83.2437  -20.2324 H         1 COA         0.4329
     55 H3B        88.8713  -85.1623  -22.7140 H         1 COA         0.0676
     56 HOA9       86.8712  -85.3646  -24.4906 H         1 COA         0.4332
     57 H4B        86.2834  -84.3952  -22.3877 H         1 COA         0.1133
     58 H51A       87.2605  -86.0410  -20.1077 H         1 COA         0.0374
     59 H52A       85.5523  -85.7014  -20.5474 H         1 COA         0.0374
     60 HOA5       88.0786  -90.0175  -21.8730 H         1 COA         0.4622
     61 H121       84.6753  -88.9064  -18.3050 H         1 COA         0.0617
     62 H122       85.2421  -90.4441  -17.5697 H         1 COA         0.0617
     63 H131       88.0860  -88.4540  -17.0727 H         1 COA         0.0476
     64 H132       87.7175  -89.8456  -15.9983 H         1 COA         0.0476
     65 H133       87.7432  -88.1780  -15.3311 H         1 COA         0.0476
     66 H141       86.1780  -86.9326  -17.8451 H         1 COA         0.0476
     67 H142       85.8437  -86.5184  -16.1295 H         1 COA         0.0476
     68 H143       84.5265  -87.1522  -17.1735 H         1 COA         0.0476
     69 H10        85.5087  -90.1600  -15.0118 H         1 COA         0.0802
     70 HO1        86.5501  -88.1036  -13.8363 H         1 COA         0.3982
     71 HN8        83.5757  -87.5785  -14.0977 H         1 COA         0.3255
     72 H71        81.2320  -87.2366  -15.1965 H         1 COA         0.0680
     73 H72        81.1319  -89.0242  -15.3425 H         1 COA         0.0680
     74 H61        81.4621  -87.4441  -12.7195 H         1 COA         0.0753
     75 H62        79.9511  -88.2397  -13.2766 H         1 COA         0.0753
     76 HN4        81.7547  -88.3956  -10.9785 H         1 COA         0.3099
     77 H31        82.9779  -91.2173  -11.0242 H         1 COA         0.0631
     78 H32        82.8431  -90.1313   -9.5998 H         1 COA         0.0631
     79 H21        80.3736  -90.6017   -9.5181 H         1 COA         0.0837
     80 H22        80.5724  -91.7559  -10.8800 H         1 COA         0.0837
     81 HS1        80.6217  -93.2588   -8.4145 H         1 COA         0.1907
     82 H82        88.6480  -85.2639  -14.4612 H         1 COA         0.4209
@<TRIPOS>BOND
     1    1    2 ar
     2    1    6 ar
     3    1   82 1
     4    2    3 ar
     5    2   49 1
     6    3    4 ar
     7    4    5 ar
     8    4   10 ar
     9    5    6 ar
    10    5    8 ar
    11    6    7 2
    12    7   50 1
    13    8    9 ar
    14    9   10 ar
    15    9   51 1
    16   10   11 1
    17   11   12 1
    18   11   21 1
    19   11   52 1
    20   12   13 1
    21   12   14 1
    22   12   53 1
    23   13   54 1
    24   14   15 1
    25   14   20 1
    26   14   55 1
    27   15   16 1
    28   16   17 2
    29   16   18 1
    30   16   19 1
    31   19   56 1
    32   20   21 1
    33   20   22 1
    34   20   57 1
    35   22   23 1
    36   22   58 1
    37   22   59 1
    38   23   24 1
    39   24   25 2
    40   24   26 1
    41   24   27 1
    42   27   28 1
    43   28   29 2
    44   28   30 1
    45   28   31 1
    46   30   60 1
    47   31   33 1
    48   32   33 1
    49   32   34 1
    50   32   35 1
    51   32   36 1
    52   33   61 1
    53   33   62 1
    54   34   63 1
    55   34   64 1
    56   34   65 1
    57   35   66 1
    58   35   67 1
    59   35   68 1
    60   36   37 1
    61   36   38 1
    62   36   69 1
    63   37   70 1
    64   38   39 2
    65   38   40 am
    66   40   41 1
    67   40   71 1
    68   41   42 1
    69   41   72 1
    70   41   73 1
    71   42   43 1
    72   42   74 1
    73   42   75 1
    74   43   44 2
    75   43   45 am
    76   45   46 1
    77   45   76 1
    78   46   47 1
    79   46   77 1
    80   46   78 1
    81   47   48 1
    82   47   79 1
    83   47   80 1
    84   48   81 1
@<TRIPOS>SUBSTRUCTURE
     1 COA         1 GROUP   0 A     ****
@<TRIPOS>MOLECULE
[4-hydroxy-2-[[[hydroxy-[3-hydroxy-2,2-dimethyl-4-oxo-4-[[3-oxo-3-(2-sulfanylethylamino)propyl]amino]butoxy]phosphoryl]oxy-oxido-phosphoryl]oxymethyl]-5-(6-imino-1~{H}-purin-9-yl)tetrahydrofuran-3-yl] hydrogen phosphate
   82    84     1     0     0
SMALL
USER_CHARGES

@<TRIPOS>ATOM
      1 N1A        88.6040  -84.6940  -15.4010 N.pl3     1 COA        -0.8157
      2 C2A        88.5170  -85.3620  -16.6140 C.ar      1 COA         0.6104
      3 N3A        88.4530  -84.8110  -17.8270 N.ar      1 COA        -0.5615
      4 C4A        88.4890  -83.4640  -17.7910 C.ar      1 COA         0.0475
      5 C5A        88.5780  -82.6230  -16.6440 C.ar      1 COA         0.1387
      6 C6A        88.6370  -83.3150  -15.3450 C.ar      1 COA         0.6193
      7 N6A        88.7190  -82.6940  -14.2090 N.2       1 COA        -0.8968
      8 N7A        88.5930  -81.3110  -16.9840 N.ar      1 COA        -0.6634
      9 C8A        88.5140  -81.2930  -18.3130 C.ar      1 COA         0.4374
     10 N9A        88.4440  -82.5690  -18.8600 N.pl3     1 COA        -0.1626
     11 C1B        88.2830  -82.8930  -20.3050 C.3       1 COA         0.2159
     12 C2B        89.1690  -84.0030  -20.8100 C.3       1 COA         0.0997
     13 O2B        90.4930  -83.5370  -21.0680 O.3       1 COA        -0.5960
     14 C3B        88.4470  -84.3520  -22.1030 C.3       1 COA         0.1752
     15 O3B        88.5340  -83.3380  -23.0200 O.3       1 COA        -0.5691
     16 P3B        88.5670  -83.7630  -24.6320 P.3       1 COA         1.4336
     17 O7A        89.7760  -84.7730  -24.8120 O.2       1 COA        -0.8242
     18 O8A        88.8680  -82.4540  -25.4620 O.3       1 COA        -0.8242
     19 O9A        87.1870  -84.4450  -25.0050 O.3       1 COA        -0.8025
     20 C4B        86.9970  -84.4910  -21.5560 C.3       1 COA         0.1032
     21 O4B        86.9570  -83.4610  -20.4760 O.3       1 COA        -0.4101
     22 C5B        86.5780  -85.7930  -20.9340 C.3       1 COA         0.1691
     23 O5B        86.6630  -86.7650  -22.0150 O.3       1 COA        -0.5845
     24 P1A        85.5120  -87.8990  -22.1320 P.3       1 COA         1.5702
     25 O1A        85.9730  -88.8420  -23.2310 O.2       1 COA        -0.8254
     26 O2A        84.1350  -87.3250  -22.2760 O.3       1 COA        -0.8254
     27 O3A        85.5440  -88.6720  -20.8060 O.3       1 COA        -0.7933
     28 P2A        86.5260  -89.8380  -20.2320 P.3       1 COA         1.7806
     29 O4A        85.9410  -91.2220  -20.3870 O.2       1 COA        -0.8764
     30 O5A        87.9130  -89.7660  -20.8150 O.3       1 COA        -0.7942
     31 O6A        86.6310  -89.4110  -18.6740 O.3       1 COA        -0.5952
     32 CBP        85.9600  -88.6360  -16.5360 C.3       1 COA        -0.0367
     33 CCP        85.5210  -89.4080  -17.8120 C.3       1 COA         0.1834
     34 CDP        87.4920  -88.7900  -16.2100 C.3       1 COA        -0.1001
     35 CEP        85.6020  -87.2100  -16.9500 C.3       1 COA        -0.1001
     36 CAP        85.1850  -89.1370  -15.2540 C.3       1 COA         0.0914
     37 OAP        85.5020  -88.2660  -14.1280 O.3       1 COA        -0.5746
     38 C9P        83.6680  -89.1660  -15.4160 C.2       1 COA         0.6227
     39 O9P        83.0890  -90.0690  -16.2240 O.2       1 COA        -0.6313
     40 N8P        82.9960  -88.2770  -14.7190 N.am      1 COA        -0.5773
     41 C7P        81.5360  -88.1930  -14.7460 C.3       1 COA         0.1123
     42 C6P        81.0500  -88.2840  -13.2980 C.3       1 COA        -0.1808
     43 C5P        81.4830  -89.5720  -12.6330 C.2       1 COA         0.6561
     44 O5P        81.5080  -90.7220  -13.2480 O.2       1 COA        -0.6058
     45 N4P        81.8280  -89.4210  -11.3700 N.am      1 COA        -0.5612
     46 C3P        82.3050  -90.5540  -10.4610 C.3       1 COA         0.0821
     47 C2P        81.0660  -91.3020  -10.0080 C.3       1 COA        -0.0338
     48 S1P        81.4370  -92.6410   -8.8190 S.3       1 COA        -0.3726
     49 H2A        88.4990  -86.4230  -16.5720 H         1 COA         0.0407
     50 H62A       88.7420  -81.7000  -14.1860 H         1 COA         0.4155
     51 H8A        88.5050  -80.4030  -18.8910 H         1 COA         0.0999
     52 H1B        88.4770  -81.9515  -20.8397 H         1 COA         0.1118
     53 H2B        89.3598  -84.8274  -20.1072 H         1 COA         0.0611
     54 HO2A       91.1454  -83.2437  -20.2324 H         1 COA         0.4341
     55 H3B        88.8713  -85.1623  -22.7140 H         1 COA         0.0681
     56 HOA9       86.8712  -85.3646  -24.4906 H         1 COA         0.4329
     57 H4B        86.2834  -84.3952  -22.3877 H         1 COA         0.1136
     58 H51A       87.2605  -86.0410  -20.1077 H         1 COA         0.0371
     59 H52A       85.5523  -85.7014  -20.5474 H         1 COA         0.0371
     60 HOA5       88.0786  -90.0175  -21.8730 H         1 COA         0.4622
     61 H121       84.6753  -88.9064  -18.3050 H         1 COA         0.0601
     62 H122       85.2421  -90.4441  -17.5697 H         1 COA         0.0601
     63 H131       88.0860  -88.4540  -17.0727 H         1 COA         0.0479
     64 H132       87.7175  -89.8456  -15.9983 H         1 COA         0.0479
     65 H133       87.7432  -88.1780  -15.3311 H         1 COA         0.0479
     66 H141       86.1780  -86.9326  -17.8451 H         1 COA         0.0479
     67 H142       85.8437  -86.5184  -16.1295 H         1 COA         0.0479
     68 H143       84.5265  -87.1522  -17.1735 H         1 COA         0.0479
     69 H10        85.5087  -90.1600  -15.0118 H         1 COA         0.0801
     70 HO1        86.5501  -88.1036  -13.8363 H         1 COA         0.3984
     71 HN8        83.5757  -87.5785  -14.0977 H         1 COA         0.3248
     72 H71        81.2320  -87.2366  -15.1965 H         1 COA         0.0683
     73 H72        81.1319  -89.0242  -15.3425 H         1 COA         0.0683
     74 H61        81.4621  -87.4441  -12.7195 H         1 COA         0.0749
     75 H62        79.9511  -88.2397  -13.2766 H         1 COA         0.0749
     76 HN4        81.7547  -88.3956  -10.9785 H         1 COA         0.3096
     77 H31        82.9779  -91.2173  -11.0242 H         1 COA         0.0635
     78 H32        82.8431  -90.1313   -9.5998 H         1 COA         0.0635
     79 H21        80.3736  -90.6017   -9.5181 H         1 COA         0.0838
     80 H22        80.5724  -91.7559  -10.8800 H         1 COA         0.0838
     81 HS1        80.6217  -93.2588   -8.4145 H         1 COA         0.1903
     82 H82        88.6480  -85.2639  -14.4612 H         1 COA         0.4407
@<TRIPOS>BOND
     1    1    2 ar
     2    1    6 ar
     3    1   82 1
     4    2    3 ar
     5    2   49 1
     6    3    4 ar
     7    4    5 ar
     8    4   10 ar
     9    5    6 ar
    10    5    8 ar
    11    6    7 2
    12    7   50 1
    13    8    9 ar
    14    9   10 ar
    15    9   51 1
    16   10   11 1
    17   11   12 1
    18   11   21 1
    19   11   52 1
    20   12   13 1
    21   12   14 1
    22   12   53 1
    23   13   54 1
    24   14   15 1
    25   14   20 1
    26   14   55 1
    27   15   16 1
    28   16   17 2
    29   16   18 1
    30   16   19 1
    31   19   56 1
    32   20   21 1
    33   20   22 1
    34   20   57 1
    35   22   23 1
    36   22   58 1
    37   22   59 1
    38   23   24 1
    39   24   25 2
    40   24   26 1
    41   24   27 1
    42   27   28 1
    43   28   29 2
    44   28   30 1
    45   28   31 1
    46   30   60 1
    47   31   33 1
    48   32   33 1
    49   32   34 1
    50   32   35 1
    51   32   36 1
    52   33   61 1
    53   33   62 1
    54   34   63 1
    55   34   64 1
    56   34   65 1
    57   35   66 1
    58   35   67 1
    59   35   68 1
    60   36   37 1
    61   36   38 1
    62   36   69 1
    63   37   70 1
    64   38   39 2
    65   38   40 am
    66   40   41 1
    67   40   71 1
    68   41   42 1
    69   41   72 1
    70   41   73 1
    71   42   43 1
    72   42   74 1
    73   42   75 1
    74   43   44 2
    75   43   45 am
    76   45   46 1
    77   45   76 1
    78   46   47 1
    79   46   77 1
    80   46   78 1
    81   47   48 1
    82   47   79 1
    83   47   80 1
    84   48   81 1
@<TRIPOS>SUBSTRUCTURE
     1 COA         1 GROUP   0 A     ****
@<TRIPOS>MOLECULE
[4-hydroxy-2-[[hydroxy-[[3-hydroxy-2,2-dimethyl-4-oxo-4-[[3-oxo-3-(2-sulfanylethylamino)propyl]amino]butoxy]-oxido-phosphoryl]oxy-phosphoryl]oxymethyl]-5-(6-imino-1~{H}-purin-9-yl)tetrahydrofuran-3-yl] hydrogen phosphate
   82    84     1     0     0
SMALL
USER_CHARGES

@<TRIPOS>ATOM
      1 N1A        88.6040  -84.6940  -15.4010 N.pl3     1 COA        -0.8633
      2 C2A        88.5170  -85.3620  -16.6140 C.ar      1 COA         0.6052
      3 N3A        88.4530  -84.8110  -17.8270 N.ar      1 COA        -0.5613
      4 C4A        88.4890  -83.4640  -17.7910 C.ar      1 COA         0.0335
      5 C5A        88.5780  -82.6230  -16.6440 C.ar      1 COA         0.2044
      6 C6A        88.6370  -83.3150  -15.3450 C.ar      1 COA         0.6209
      7 N6A        88.7190  -82.6940  -14.2090 N.2       1 COA        -0.8361
      8 N7A        88.5930  -81.3110  -16.9840 N.ar      1 COA        -0.6212
      9 C8A        88.5140  -81.2930  -18.3130 C.ar      1 COA         0.4284
     10 N9A        88.4440  -82.5690  -18.8600 N.pl3     1 COA        -0.1661
     11 C1B        88.2830  -82.8930  -20.3050 C.3       1 COA         0.2064
     12 C2B        89.1690  -84.0030  -20.8100 C.3       1 COA         0.1038
     13 O2B        90.4930  -83.5370  -21.0680 O.3       1 COA        -0.5909
     14 C3B        88.4470  -84.3520  -22.1030 C.3       1 COA         0.1468
     15 O3B        88.5340  -83.3380  -23.0200 O.3       1 COA        -0.5754
     16 P3B        88.5670  -83.7630  -24.6320 P.3       1 COA         1.4281
     17 O7A        89.7760  -84.7730  -24.8120 O.2       1 COA        -0.8225
     18 O8A        88.8680  -82.4540  -25.4620 O.3       1 COA        -0.8225
     19 O9A        87.1870  -84.4450  -25.0050 O.3       1 COA        -0.7858
     20 C4B        86.9970  -84.4910  -21.5560 C.3       1 COA         0.1149
     21 O4B        86.9570  -83.4610  -20.4760 O.3       1 COA        -0.4165
     22 C5B        86.5780  -85.7930  -20.9340 C.3       1 COA         0.1641
     23 O5B        86.6630  -86.7650  -22.0150 O.3       1 COA        -0.5844
     24 P1A        85.5120  -87.8990  -22.1320 P.3       1 COA         1.7917
     25 O1A        85.9730  -88.8420  -23.2310 O.2       1 COA        -0.8419
     26 O2A        84.1350  -87.3250  -22.2760 O.3       1 COA        -0.8124
     27 O3A        85.5440  -88.6720  -20.8060 O.3       1 COA        -0.8182
     28 P2A        86.5260  -89.8380  -20.2320 P.3       1 COA         1.5622
     29 O4A        85.9410  -91.2220  -20.3870 O.2       1 COA        -0.8313
     30 O5A        87.9130  -89.7660  -20.8150 O.3       1 COA        -0.8313
     31 O6A        86.6310  -89.4110  -18.6740 O.3       1 COA        -0.6032
     32 CBP        85.9600  -88.6360  -16.5360 C.3       1 COA        -0.0616
     33 CCP        85.5210  -89.4080  -17.8120 C.3       1 COA         0.1789
     34 CDP        87.4920  -88.7900  -16.2100 C.3       1 COA        -0.0872
     35 CEP        85.6020  -87.2100  -16.9500 C.3       1 COA        -0.0872
     36 CAP        85.1850  -89.1370  -15.2540 C.3       1 COA         0.0919
     37 OAP        85.5020  -88.2660  -14.1280 O.3       1 COA        -0.6089
     38 C9P        83.6680  -89.1660  -15.4160 C.2       1 COA         0.6372
     39 O9P        83.0890  -90.0690  -16.2240 O.2       1 COA        -0.6670
     40 N8P        82.9960  -88.2770  -14.7190 N.am      1 COA        -0.5538
     41 C7P        81.5360  -88.1930  -14.7460 C.3       1 COA         0.1084
     42 C6P        81.0500  -88.2840  -13.2980 C.3       1 COA        -0.1782
     43 C5P        81.4830  -89.5720  -12.6330 C.2       1 COA         0.6641
     44 O5P        81.5080  -90.7220  -13.2480 O.2       1 COA        -0.6023
     45 N4P        81.8280  -89.4210  -11.3700 N.am      1 COA        -0.5976
     46 C3P        82.3050  -90.5540  -10.4610 C.3       1 COA         0.0994
     47 C2P        81.0660  -91.3020  -10.0080 C.3       1 COA        -0.0155
     48 S1P        81.4370  -92.6410   -8.8190 S.3       1 COA        -0.4110
     49 H2A        88.4990  -86.4230  -16.5720 H         1 COA         0.0405
     50 H61A       88.7590  -83.2120  -13.3610 H         1 COA         0.3638
     51 H8A        88.5050  -80.4030  -18.8910 H         1 COA         0.0942
     52 H1B        88.4770  -81.9515  -20.8397 H         1 COA         0.1056
     53 H2B        89.3598  -84.8274  -20.1072 H         1 COA         0.0739
     54 HO2A       91.1454  -83.2437  -20.2324 H         1 COA         0.4344
     55 H3B        88.8713  -85.1623  -22.7140 H         1 COA         0.0980
     56 HOA9       86.8712  -85.3646  -24.4906 H         1 COA         0.4281
     57 H4B        86.2834  -84.3952  -22.3877 H         1 COA         0.1130
     58 H51A       87.2605  -86.0410  -20.1077 H         1 COA         0.0542
     59 H52A       85.5523  -85.7014  -20.5474 H         1 COA         0.0542
     60 HOA2       83.8791  -86.7250  -23.1617 H         1 COA         0.4845
     61 H121       84.6753  -88.9064  -18.3050 H         1 COA         0.0403
     62 H122       85.2421  -90.4441  -17.5697 H         1 COA         0.0403
     63 H131       88.0860  -88.4540  -17.0727 H         1 COA         0.0417
     64 H132       87.7175  -89.8456  -15.9983 H         1 COA         0.0417
     65 H133       87.7432  -88.1780  -15.3311 H         1 COA         0.0417
     66 H141       86.1780  -86.9326  -17.8451 H         1 COA         0.0417
     67 H142       85.8437  -86.5184  -16.1295 H         1 COA         0.0417
     68 H143       84.5265  -87.1522  -17.1735 H         1 COA         0.0417
     69 H10        85.5087  -90.1600  -15.0118 H         1 COA         0.0899
     70 HO1        86.5501  -88.1036  -13.8363 H         1 COA         0.4119
     71 HN8        83.5757  -87.5785  -14.0977 H         1 COA         0.3564
     72 H71        81.2320  -87.2366  -15.1965 H         1 COA         0.0755
     73 H72        81.1319  -89.0242  -15.3425 H         1 COA         0.0755
     74 H61        81.4621  -87.4441  -12.7195 H         1 COA         0.0719
     75 H62        79.9511  -88.2397  -13.2766 H         1 COA         0.0719
     76 HN4        81.7547  -88.3956  -10.9785 H         1 COA         0.3101
     77 H31        82.9779  -91.2173  -11.0242 H         1 COA         0.0638
     78 H32        82.8431  -90.1313   -9.5998 H         1 COA         0.0638
     79 H21        80.3736  -90.6017   -9.5181 H         1 COA         0.0816
     80 H22        80.5724  -91.7559  -10.8800 H         1 COA         0.0816
     81 HS1        80.6217  -93.2588   -8.4145 H         1 COA         0.2153
     82 H82        88.6480  -85.2639  -14.4612 H         1 COA         0.4202
@<TRIPOS>BOND
     1    1    2 ar
     2    1    6 ar
     3    1   82 1
     4    2    3 ar
     5    2   49 1
     6    3    4 ar
     7    4    5 ar
     8    4   10 ar
     9    5    6 ar
    10    5    8 ar
    11    6    7 2
    12    7   50 1
    13    8    9 ar
    14    9   10 ar
    15    9   51 1
    16   10   11 1
    17   11   12 1
    18   11   21 1
    19   11   52 1
    20   12   13 1
    21   12   14 1
    22   12   53 1
    23   13   54 1
    24   14   15 1
    25   14   20 1
    26   14   55 1
    27   15   16 1
    28   16   17 2
    29   16   18 1
    30   16   19 1
    31   19   56 1
    32   20   21 1
    33   20   22 1
    34   20   57 1
    35   22   23 1
    36   22   58 1
    37   22   59 1
    38   23   24 1
    39   24   25 2
    40   24   26 1
    41   24   27 1
    42   26   60 1
    43   27   28 1
    44   28   29 2
    45   28   30 1
    46   28   31 1
    47   31   33 1
    48   32   33 1
    49   32   34 1
    50   32   35 1
    51   32   36 1
    52   33   61 1
    53   33   62 1
    54   34   63 1
    55   34   64 1
    56   34   65 1
    57   35   66 1
    58   35   67 1
    59   35   68 1
    60   36   37 1
    61   36   38 1
    62   36   69 1
    63   37   70 1
    64   38   39 2
    65   38   40 am
    66   40   41 1
    67   40   71 1
    68   41   42 1
    69   41   72 1
    70   41   73 1
    71   42   43 1
    72   42   74 1
    73   42   75 1
    74   43   44 2
    75   43   45 am
    76   45   46 1
    77   45   76 1
    78   46   47 1
    79   46   77 1
    80   46   78 1
    81   47   48 1
    82   47   79 1
    83   47   80 1
    84   48   81 1
@<TRIPOS>SUBSTRUCTURE
     1 COA         1 GROUP   0 A     ****
@<TRIPOS>MOLECULE
[4-hydroxy-2-[[hydroxy-[[3-hydroxy-2,2-dimethyl-4-oxo-4-[[3-oxo-3-(2-sulfanylethylamino)propyl]amino]butoxy]-oxido-phosphoryl]oxy-phosphoryl]oxymethyl]-5-(6-imino-1~{H}-purin-9-yl)tetrahydrofuran-3-yl] hydrogen phosphate
   82    84     1     0     0
SMALL
USER_CHARGES

@<TRIPOS>ATOM
      1 N1A        88.6040  -84.6940  -15.4010 N.pl3     1 COA        -0.8134
      2 C2A        88.5170  -85.3620  -16.6140 C.ar      1 COA         0.6160
      3 N3A        88.4530  -84.8110  -17.8270 N.ar      1 COA        -0.5700
      4 C4A        88.4890  -83.4640  -17.7910 C.ar      1 COA         0.0512
      5 C5A        88.5780  -82.6230  -16.6440 C.ar      1 COA         0.1407
      6 C6A        88.6370  -83.3150  -15.3450 C.ar      1 COA         0.6166
      7 N6A        88.7190  -82.6940  -14.2090 N.2       1 COA        -0.8917
      8 N7A        88.5930  -81.3110  -16.9840 N.ar      1 COA        -0.6557
      9 C8A        88.5140  -81.2930  -18.3130 C.ar      1 COA         0.4389
     10 N9A        88.4440  -82.5690  -18.8600 N.pl3     1 COA        -0.1671
     11 C1B        88.2830  -82.8930  -20.3050 C.3       1 COA         0.2056
     12 C2B        89.1690  -84.0030  -20.8100 C.3       1 COA         0.1030
     13 O2B        90.4930  -83.5370  -21.0680 O.3       1 COA        -0.5914
     14 C3B        88.4470  -84.3520  -22.1030 C.3       1 COA         0.1521
     15 O3B        88.5340  -83.3380  -23.0200 O.3       1 COA        -0.5704
     16 P3B        88.5670  -83.7630  -24.6320 P.3       1 COA         1.4284
     17 O7A        89.7760  -84.7730  -24.8120 O.2       1 COA        -0.8227
     18 O8A        88.8680  -82.4540  -25.4620 O.3       1 COA        -0.8227
     19 O9A        87.1870  -84.4450  -25.0050 O.3       1 COA        -0.7851
     20 C4B        86.9970  -84.4910  -21.5560 C.3       1 COA         0.1108
     21 O4B        86.9570  -83.4610  -20.4760 O.3       1 COA        -0.4160
     22 C5B        86.5780  -85.7930  -20.9340 C.3       1 COA         0.1615
     23 O5B        86.6630  -86.7650  -22.0150 O.3       1 COA        -0.5838
     24 P1A        85.5120  -87.8990  -22.1320 P.3       1 COA         1.7906
     25 O1A        85.9730  -88.8420  -23.2310 O.2       1 COA        -0.8402
     26 O2A        84.1350  -87.3250  -22.2760 O.3       1 COA        -0.8128
     27 O3A        85.5440  -88.6720  -20.8060 O.3       1 COA        -0.8192
     28 P2A        86.5260  -89.8380  -20.2320 P.3       1 COA         1.5607
     29 O4A        85.9410  -91.2220  -20.3870 O.2       1 COA        -0.8298
     30 O5A        87.9130  -89.7660  -20.8150 O.3       1 COA        -0.8298
     31 O6A        86.6310  -89.4110  -18.6740 O.3       1 COA        -0.6014
     32 CBP        85.9600  -88.6360  -16.5360 C.3       1 COA        -0.0621
     33 CCP        85.5210  -89.4080  -17.8120 C.3       1 COA         0.1781
     34 CDP        87.4920  -88.7900  -16.2100 C.3       1 COA        -0.0872
     35 CEP        85.6020  -87.2100  -16.9500 C.3       1 COA        -0.0872
     36 CAP        85.1850  -89.1370  -15.2540 C.3       1 COA         0.0935
     37 OAP        85.5020  -88.2660  -14.1280 O.3       1 COA        -0.6089
     38 C9P        83.6680  -89.1660  -15.4160 C.2       1 COA         0.6356
     39 O9P        83.0890  -90.0690  -16.2240 O.2       1 COA        -0.6654
     40 N8P        82.9960  -88.2770  -14.7190 N.am      1 COA        -0.5553
     41 C7P        81.5360  -88.1930  -14.7460 C.3       1 COA         0.1089
     42 C6P        81.0500  -88.2840  -13.2980 C.3       1 COA        -0.1794
     43 C5P        81.4830  -89.5720  -12.6330 C.2       1 COA         0.6642
     44 O5P        81.5080  -90.7220  -13.2480 O.2       1 COA        -0.6014
     45 N4P        81.8280  -89.4210  -11.3700 N.am      1 COA        -0.5978
     46 C3P        82.3050  -90.5540  -10.4610 C.3       1 COA         0.0994
     47 C2P        81.0660  -91.3020  -10.0080 C.3       1 COA        -0.0160
     48 S1P        81.4370  -92.6410   -8.8190 S.3       1 COA        -0.4096
     49 H2A        88.4990  -86.4230  -16.5720 H         1 COA         0.0436
     50 H62A       88.7420  -81.7000  -14.1860 H         1 COA         0.4155
     51 H8A        88.5050  -80.4030  -18.8910 H         1 COA         0.0944
     52 H1B        88.4770  -81.9515  -20.8397 H         1 COA         0.1058
     53 H2B        89.3598  -84.8274  -20.1072 H         1 COA         0.0739
     54 HO2A       91.1454  -83.2437  -20.2324 H         1 COA         0.4345
     55 H3B        88.8713  -85.1623  -22.7140 H         1 COA         0.0946
     56 HOA9       86.8712  -85.3646  -24.4906 H         1 COA         0.4288
     57 H4B        86.2834  -84.3952  -22.3877 H         1 COA         0.1133
     58 H51A       87.2605  -86.0410  -20.1077 H         1 COA         0.0550
     59 H52A       85.5523  -85.7014  -20.5474 H         1 COA         0.0550
     60 HOA2       83.8791  -86.7250  -23.1617 H         1 COA         0.4830
     61 H121       84.6753  -88.9064  -18.3050 H         1 COA         0.0400
     62 H122       85.2421  -90.4441  -17.5697 H         1 COA         0.0400
     63 H131       88.0860  -88.4540  -17.0727 H         1 COA         0.0415
     64 H132       87.7175  -89.8456  -15.9983 H         1 COA         0.0415
     65 H133       87.7432  -88.1780  -15.3311 H         1 COA         0.0415
     66 H141       86.1780  -86.9326  -17.8451 H         1 COA         0.0415
     67 H142       85.8437  -86.5184  -16.1295 H         1 COA         0.0415
     68 H143       84.5265  -87.1522  -17.1735 H         1 COA         0.0415
     69 H10        85.5087  -90.1600  -15.0118 H         1 COA         0.0906
     70 HO1        86.5501  -88.1036  -13.8363 H         1 COA         0.4113
     71 HN8        83.5757  -87.5785  -14.0977 H         1 COA         0.3574
     72 H71        81.2320  -87.2366  -15.1965 H         1 COA         0.0756
     73 H72        81.1319  -89.0242  -15.3425 H         1 COA         0.0756
     74 H61        81.4621  -87.4441  -12.7195 H         1 COA         0.0716
     75 H62        79.9511  -88.2397  -13.2766 H         1 COA         0.0716
     76 HN4        81.7547  -88.3956  -10.9785 H         1 COA         0.3108
     77 H31        82.9779  -91.2173  -11.0242 H         1 COA         0.0633
     78 H32        82.8431  -90.1313   -9.5998 H         1 COA         0.0633
     79 H21        80.3736  -90.6017   -9.5181 H         1 COA         0.0816
     80 H22        80.5724  -91.7559  -10.8800 H         1 COA         0.0816
     81 HS1        80.6217  -93.2588   -8.4145 H         1 COA         0.2148
     82 H82        88.6480  -85.2639  -14.4612 H         1 COA         0.4424
@<TRIPOS>BOND
     1    1    2 ar
     2    1    6 ar
     3    1   82 1
     4    2    3 ar
     5    2   49 1
     6    3    4 ar
     7    4    5 ar
     8    4   10 ar
     9    5    6 ar
    10    5    8 ar
    11    6    7 2
    12    7   50 1
    13    8    9 ar
    14    9   10 ar
    15    9   51 1
    16   10   11 1
    17   11   12 1
    18   11   21 1
    19   11   52 1
    20   12   13 1
    21   12   14 1
    22   12   53 1
    23   13   54 1
    24   14   15 1
    25   14   20 1
    26   14   55 1
    27   15   16 1
    28   16   17 2
    29   16   18 1
    30   16   19 1
    31   19   56 1
    32   20   21 1
    33   20   22 1
    34   20   57 1
    35   22   23 1
    36   22   58 1
    37   22   59 1
    38   23   24 1
    39   24   25 2
    40   24   26 1
    41   24   27 1
    42   26   60 1
    43   27   28 1
    44   28   29 2
    45   28   30 1
    46   28   31 1
    47   31   33 1
    48   32   33 1
    49   32   34 1
    50   32   35 1
    51   32   36 1
    52   33   61 1
    53   33   62 1
    54   34   63 1
    55   34   64 1
    56   34   65 1
    57   35   66 1
    58   35   67 1
    59   35   68 1
    60   36   37 1
    61   36   38 1
    62   36   69 1
    63   37   70 1
    64   38   39 2
    65   38   40 am
    66   40   41 1
    67   40   71 1
    68   41   42 1
    69   41   72 1
    70   41   73 1
    71   42   43 1
    72   42   74 1
    73   42   75 1
    74   43   44 2
    75   43   45 am
    76   45   46 1
    77   45   76 1
    78   46   47 1
    79   46   77 1
    80   46   78 1
    81   47   48 1
    82   47   79 1
    83   47   80 1
    84   48   81 1
@<TRIPOS>SUBSTRUCTURE
     1 COA         1 GROUP   0 A     ****
@<TRIPOS>MOLECULE
[[3-hydroxy-2,2-dimethyl-4-oxo-4-[[3-oxo-3-(2-sulfanylethylamino)propyl]amino]butoxy]-oxido-phosphoryl] [4-hydroxy-5-(6-imino-7,8-dihydro-1~{H}-purin-8-ylium-9-yl)-3-phosphonooxy-tetrahydrofuran-2-yl]methyl phosphate
   83    85     1     0     0
SMALL
USER_CHARGES

@<TRIPOS>ATOM
      1 N1A        88.6040  -84.6940  -15.4010 N.pl3     1 COA        -0.7926
      2 C2A        88.5170  -85.3620  -16.6140 C.ar      1 COA         0.6674
      3 N3A        88.4530  -84.8110  -17.8270 N.ar      1 COA        -0.5893
      4 C4A        88.4890  -83.4640  -17.7910 C.ar      1 COA         0.3030
      5 C5A        88.5780  -82.6230  -16.6440 C.ar      1 COA        -0.2010
      6 C6A        88.6370  -83.3150  -15.3450 C.ar      1 COA         0.7145
      7 N6A        88.7190  -82.6940  -14.2090 N.2       1 COA        -0.8294
      8 N7A        88.5930  -81.3110  -16.9840 N.pl3     1 COA        -0.5168
      9 C8A        88.5140  -81.2930  -18.3130 C.cat     1 COA         0.2940
     10 N9A        88.4440  -82.5690  -18.8600 N.pl3     1 COA        -0.4492
     11 C1B        88.2830  -82.8930  -20.3050 C.3       1 COA         0.4211
     12 C2B        89.1690  -84.0030  -20.8100 C.3       1 COA         0.1052
     13 O2B        90.4930  -83.5370  -21.0680 O.3       1 COA        -0.5804
     14 C3B        88.4470  -84.3520  -22.1030 C.3       1 COA         0.1338
     15 O3B        88.5340  -83.3380  -23.0200 O.3       1 COA        -0.5930
     16 P3B        88.5670  -83.7630  -24.6320 P.3       1 COA         1.6444
     17 O7A        89.7760  -84.7730  -24.8120 O.2       1 COA        -0.7817
     18 O8A        88.8680  -82.4540  -25.4620 O.3       1 COA        -0.7671
     19 O9A        87.1870  -84.4450  -25.0050 O.3       1 COA        -0.7671
     20 C4B        86.9970  -84.4910  -21.5560 C.3       1 COA         0.0934
     21 O4B        86.9570  -83.4610  -20.4760 O.3       1 COA        -0.3864
     22 C5B        86.5780  -85.7930  -20.9340 C.3       1 COA         0.1848
     23 O5B        86.6630  -86.7650  -22.0150 O.3       1 COA        -0.5595
     24 P1A        85.5120  -87.8990  -22.1320 P.3       1 COA         1.6272
     25 O1A        85.9730  -88.8420  -23.2310 O.2       1 COA        -0.8855
     26 O2A        84.1350  -87.3250  -22.2760 O.3       1 COA        -0.8855
     27 O3A        85.5440  -88.6720  -20.8060 O.3       1 COA        -0.8140
     28 P2A        86.5260  -89.8380  -20.2320 P.3       1 COA         1.5815
     29 O4A        85.9410  -91.2220  -20.3870 O.2       1 COA        -0.8553
     30 O5A        87.9130  -89.7660  -20.8150 O.3       1 COA        -0.8553
     31 O6A        86.6310  -89.4110  -18.6740 O.3       1 COA        -0.5856
     32 CBP        85.9600  -88.6360  -16.5360 C.3       1 COA        -0.0575
     33 CCP        85.5210  -89.4080  -17.8120 C.3       1 COA         0.1945
     34 CDP        87.4920  -88.7900  -16.2100 C.3       1 COA        -0.0768
     35 CEP        85.6020  -87.2100  -16.9500 C.3       1 COA        -0.0768
     36 CAP        85.1850  -89.1370  -15.2540 C.3       1 COA         0.0912
     37 OAP        85.5020  -88.2660  -14.1280 O.3       1 COA        -0.6082
     38 C9P        83.6680  -89.1660  -15.4160 C.2       1 COA         0.6300
     39 O9P        83.0890  -90.0690  -16.2240 O.2       1 COA        -0.6672
     40 N8P        82.9960  -88.2770  -14.7190 N.am      1 COA        -0.5563
     41 C7P        81.5360  -88.1930  -14.7460 C.3       1 COA         0.1020
     42 C6P        81.0500  -88.2840  -13.2980 C.3       1 COA        -0.1758
     43 C5P        81.4830  -89.5720  -12.6330 C.2       1 COA         0.6642
     44 O5P        81.5080  -90.7220  -13.2480 O.2       1 COA        -0.6090
     45 N4P        81.8280  -89.4210  -11.3700 N.am      1 COA        -0.5821
     46 C3P        82.3050  -90.5540  -10.4610 C.3       1 COA         0.0917
     47 C2P        81.0660  -91.3020  -10.0080 C.3       1 COA        -0.0232
     48 S1P        81.4370  -92.6410   -8.8190 S.3       1 COA        -0.3894
     49 H2A        88.4990  -86.4230  -16.5720 H         1 COA         0.0737
     50 H62A       88.7420  -81.7000  -14.1860 H         1 COA         0.4168
     51 H8A        88.5050  -80.4030  -18.8910 H         1 COA         0.3958
     52 H1B        88.4770  -81.9515  -20.8397 H         1 COA         0.1205
     53 H2B        89.3598  -84.8274  -20.1072 H         1 COA         0.0780
     54 HO2A       91.1454  -83.2437  -20.2324 H         1 COA         0.4232
     55 H3B        88.8713  -85.1623  -22.7140 H         1 COA         0.0844
     56 HOA8       89.7991  -81.8946  -25.2883 H         1 COA         0.4900
     57 HOA9       86.8712  -85.3646  -24.4906 H         1 COA         0.4900
     58 H4B        86.2834  -84.3952  -22.3877 H         1 COA         0.1171
     59 H51A       87.2605  -86.0410  -20.1077 H         1 COA         0.0420
     60 H52A       85.5523  -85.7014  -20.5474 H         1 COA         0.0420
     61 H121       84.6753  -88.9064  -18.3050 H         1 COA         0.0240
     62 H122       85.2421  -90.4441  -17.5697 H         1 COA         0.0240
     63 H131       88.0860  -88.4540  -17.0727 H         1 COA         0.0375
     64 H132       87.7175  -89.8456  -15.9983 H         1 COA         0.0375
     65 H133       87.7432  -88.1780  -15.3311 H         1 COA         0.0375
     66 H141       86.1780  -86.9326  -17.8451 H         1 COA         0.0375
     67 H142       85.8437  -86.5184  -16.1295 H         1 COA         0.0375
     68 H143       84.5265  -87.1522  -17.1735 H         1 COA         0.0375
     69 H10        85.5087  -90.1600  -15.0118 H         1 COA         0.0617
     70 HO1        86.5501  -88.1036  -13.8363 H         1 COA         0.4191
     71 HN8        83.5757  -87.5785  -14.0977 H         1 COA         0.3569
     72 H71        81.2320  -87.2366  -15.1965 H         1 COA         0.0774
     73 H72        81.1319  -89.0242  -15.3425 H         1 COA         0.0774
     74 H61        81.4621  -87.4441  -12.7195 H         1 COA         0.0735
     75 H62        79.9511  -88.2397  -13.2766 H         1 COA         0.0735
     76 HN4        81.7547  -88.3956  -10.9785 H         1 COA         0.3062
     77 H31        82.9779  -91.2173  -11.0242 H         1 COA         0.0660
     78 H32        82.8431  -90.1313   -9.5998 H         1 COA         0.0660
     79 H21        80.3736  -90.6017   -9.5181 H         1 COA         0.0791
     80 H22        80.5724  -91.7559  -10.8800 H         1 COA         0.0791
     81 HS1        80.6217  -93.2588   -8.4145 H         1 COA         0.2086
     82 H82        88.6480  -85.2639  -14.4612 H         1 COA         0.4767
     83 H83        88.6605  -80.5408  -16.2015 H         1 COA         0.5052
@<TRIPOS>BOND
     1    1    2 ar
     2    1    6 ar
     3    1   82 1
     4    2    3 ar
     5    2   49 1
     6    3    4 ar
     7    4    5 ar
     8    4   10 ar
     9    5    6 ar
    10    5    8 ar
    11    6    7 2
    12    7   50 1
    13    8    9 ar
    14    8   83 1
    15    9   10 ar
    16    9   51 1
    17   10   11 1
    18   11   12 1
    19   11   21 1
    20   11   52 1
    21   12   13 1
    22   12   14 1
    23   12   53 1
    24   13   54 1
    25   14   15 1
    26   14   20 1
    27   14   55 1
    28   15   16 1
    29   16   17 2
    30   16   18 1
    31   16   19 1
    32   18   56 1
    33   19   57 1
    34   20   21 1
    35   20   22 1
    36   20   58 1
    37   22   23 1
    38   22   59 1
    39   22   60 1
    40   23   24 1
    41   24   25 2
    42   24   26 1
    43   24   27 1
    44   27   28 1
    45   28   29 2
    46   28   30 1
    47   28   31 1
    48   31   33 1
    49   32   33 1
    50   32   34 1
    51   32   35 1
    52   32   36 1
    53   33   61 1
    54   33   62 1
    55   34   63 1
    56   34   64 1
    57   34   65 1
    58   35   66 1
    59   35   67 1
    60   35   68 1
    61   36   37 1
    62   36   38 1
    63   36   69 1
    64   37   70 1
    65   38   39 2
    66   38   40 am
    67   40   41 1
    68   40   71 1
    69   41   42 1
    70   41   72 1
    71   41   73 1
    72   42   43 1
    73   42   74 1
    74   42   75 1
    75   43   44 2
    76   43   45 am
    77   45   46 1
    78   45   76 1
    79   46   47 1
    80   46   77 1
    81   46   78 1
    82   47   48 1
    83   47   79 1
    84   47   80 1
    85   48   81 1
@<TRIPOS>SUBSTRUCTURE
     1 COA         1 GROUP   0 A     ****
@<TRIPOS>MOLECULE
[[3-hydroxy-2,2-dimethyl-4-oxo-4-[[3-oxo-3-(2-sulfanylethylamino)propyl]amino]butoxy]-oxido-phosphoryl] [4-hydroxy-5-(6-imino-7,8-dihydro-1~{H}-purin-8-ylium-9-yl)-3-phosphonooxy-tetrahydrofuran-2-yl]methyl phosphate
   83    85     1     0     0
SMALL
USER_CHARGES

@<TRIPOS>ATOM
      1 N1A        88.6040  -84.6940  -15.4010 N.pl3     1 COA        -0.8436
      2 C2A        88.5170  -85.3620  -16.6140 C.ar      1 COA         0.6543
      3 N3A        88.4530  -84.8110  -17.8270 N.ar      1 COA        -0.5765
      4 C4A        88.4890  -83.4640  -17.7910 C.ar      1 COA         0.2780
      5 C5A        88.5780  -82.6230  -16.6440 C.ar      1 COA        -0.1328
      6 C6A        88.6370  -83.3150  -15.3450 C.ar      1 COA         0.7189
      7 N6A        88.7190  -82.6940  -14.2090 N.2       1 COA        -0.8193
      8 N7A        88.5930  -81.3110  -16.9840 N.pl3     1 COA        -0.4976
      9 C8A        88.5140  -81.2930  -18.3130 C.cat     1 COA         0.2835
     10 N9A        88.4440  -82.5690  -18.8600 N.pl3     1 COA        -0.4484
     11 C1B        88.2830  -82.8930  -20.3050 C.3       1 COA         0.4191
     12 C2B        89.1690  -84.0030  -20.8100 C.3       1 COA         0.1076
     13 O2B        90.4930  -83.5370  -21.0680 O.3       1 COA        -0.5832
     14 C3B        88.4470  -84.3520  -22.1030 C.3       1 COA         0.1367
     15 O3B        88.5340  -83.3380  -23.0200 O.3       1 COA        -0.5985
     16 P3B        88.5670  -83.7630  -24.6320 P.3       1 COA         1.6473
     17 O7A        89.7760  -84.7730  -24.8120 O.2       1 COA        -0.7874
     18 O8A        88.8680  -82.4540  -25.4620 O.3       1 COA        -0.7638
     19 O9A        87.1870  -84.4450  -25.0050 O.3       1 COA        -0.7638
     20 C4B        86.9970  -84.4910  -21.5560 C.3       1 COA         0.0917
     21 O4B        86.9570  -83.4610  -20.4760 O.3       1 COA        -0.3880
     22 C5B        86.5780  -85.7930  -20.9340 C.3       1 COA         0.1850
     23 O5B        86.6630  -86.7650  -22.0150 O.3       1 COA        -0.5632
     24 P1A        85.5120  -87.8990  -22.1320 P.3       1 COA         1.6312
     25 O1A        85.9730  -88.8420  -23.2310 O.2       1 COA        -0.8827
     26 O2A        84.1350  -87.3250  -22.2760 O.3       1 COA        -0.8827
     27 O3A        85.5440  -88.6720  -20.8060 O.3       1 COA        -0.8163
     28 P2A        86.5260  -89.8380  -20.2320 P.3       1 COA         1.5836
     29 O4A        85.9410  -91.2220  -20.3870 O.2       1 COA        -0.8544
     30 O5A        87.9130  -89.7660  -20.8150 O.3       1 COA        -0.8544
     31 O6A        86.6310  -89.4110  -18.6740 O.3       1 COA        -0.5883
     32 CBP        85.9600  -88.6360  -16.5360 C.3       1 COA        -0.0605
     33 CCP        85.5210  -89.4080  -17.8120 C.3       1 COA         0.2021
     34 CDP        87.4920  -88.7900  -16.2100 C.3       1 COA        -0.0774
     35 CEP        85.6020  -87.2100  -16.9500 C.3       1 COA        -0.0774
     36 CAP        85.1850  -89.1370  -15.2540 C.3       1 COA         0.0919
     37 OAP        85.5020  -88.2660  -14.1280 O.3       1 COA        -0.6089
     38 C9P        83.6680  -89.1660  -15.4160 C.2       1 COA         0.6307
     39 O9P        83.0890  -90.0690  -16.2240 O.2       1 COA        -0.6668
     40 N8P        82.9960  -88.2770  -14.7190 N.am      1 COA        -0.5584
     41 C7P        81.5360  -88.1930  -14.7460 C.3       1 COA         0.1023
     42 C6P        81.0500  -88.2840  -13.2980 C.3       1 COA        -0.1722
     43 C5P        81.4830  -89.5720  -12.6330 C.2       1 COA         0.6608
     44 O5P        81.5080  -90.7220  -13.2480 O.2       1 COA        -0.6130
     45 N4P        81.8280  -89.4210  -11.3700 N.am      1 COA        -0.5772
     46 C3P        82.3050  -90.5540  -10.4610 C.3       1 COA         0.0918
     47 C2P        81.0660  -91.3020  -10.0080 C.3       1 COA        -0.0222
     48 S1P        81.4370  -92.6410   -8.8190 S.3       1 COA        -0.3886
     49 H2A        88.4990  -86.4230  -16.5720 H         1 COA         0.0680
     50 H61A       88.7590  -83.2120  -13.3610 H         1 COA         0.4056
     51 H8A        88.5050  -80.4030  -18.8910 H         1 COA         0.3968
     52 H1B        88.4770  -81.9515  -20.8397 H         1 COA         0.1176
     53 H2B        89.3598  -84.8274  -20.1072 H         1 COA         0.0821
     54 HO2A       91.1454  -83.2437  -20.2324 H         1 COA         0.4254
     55 H3B        88.8713  -85.1623  -22.7140 H         1 COA         0.0847
     56 HOA8       89.7991  -81.8946  -25.2883 H         1 COA         0.4896
     57 HOA9       86.8712  -85.3646  -24.4906 H         1 COA         0.4896
     58 H4B        86.2834  -84.3952  -22.3877 H         1 COA         0.1190
     59 H51A       87.2605  -86.0410  -20.1077 H         1 COA         0.0450
     60 H52A       85.5523  -85.7014  -20.5474 H         1 COA         0.0450
     61 H121       84.6753  -88.9064  -18.3050 H         1 COA         0.0221
     62 H122       85.2421  -90.4441  -17.5697 H         1 COA         0.0221
     63 H131       88.0860  -88.4540  -17.0727 H         1 COA         0.0378
     64 H132       87.7175  -89.8456  -15.9983 H         1 COA         0.0378
     65 H133       87.7432  -88.1780  -15.3311 H         1 COA         0.0378
     66 H141       86.1780  -86.9326  -17.8451 H         1 COA         0.0378
     67 H142       85.8437  -86.5184  -16.1295 H         1 COA         0.0378
     68 H143       84.5265  -87.1522  -17.1735 H         1 COA         0.0378
     69 H10        85.5087  -90.1600  -15.0118 H         1 COA         0.0614
     70 HO1        86.5501  -88.1036  -13.8363 H         1 COA         0.4189
     71 HN8        83.5757  -87.5785  -14.0977 H         1 COA         0.3541
     72 H71        81.2320  -87.2366  -15.1965 H         1 COA         0.0766
     73 H72        81.1319  -89.0242  -15.3425 H         1 COA         0.0766
     74 H61        81.4621  -87.4441  -12.7195 H         1 COA         0.0728
     75 H62        79.9511  -88.2397  -13.2766 H         1 COA         0.0728
     76 HN4        81.7547  -88.3956  -10.9785 H         1 COA         0.3077
     77 H31        82.9779  -91.2173  -11.0242 H         1 COA         0.0661
     78 H32        82.8431  -90.1313   -9.5998 H         1 COA         0.0661
     79 H21        80.3736  -90.6017   -9.5181 H         1 COA         0.0796
     80 H22        80.5724  -91.7559  -10.8800 H         1 COA         0.0796
     81 HS1        80.6217  -93.2588   -8.4145 H         1 COA         0.2076
     82 H82        88.6480  -85.2639  -14.4612 H         1 COA         0.4539
     83 H83        88.6605  -80.5408  -16.2015 H         1 COA         0.5181
@<TRIPOS>BOND
     1    1    2 ar
     2    1    6 ar
     3    1   82 1
     4    2    3 ar
     5    2   49 1
     6    3    4 ar
     7    4    5 ar
     8    4   10 ar
     9    5    6 ar
    10    5    8 ar
    11    6    7 2
    12    7   50 1
    13    8    9 ar
    14    8   83 1
    15    9   10 ar
    16    9   51 1
    17   10   11 1
    18   11   12 1
    19   11   21 1
    20   11   52 1
    21   12   13 1
    22   12   14 1
    23   12   53 1
    24   13   54 1
    25   14   15 1
    26   14   20 1
    27   14   55 1
    28   15   16 1
    29   16   17 2
    30   16   18 1
    31   16   19 1
    32   18   56 1
    33   19   57 1
    34   20   21 1
    35   20   22 1
    36   20   58 1
    37   22   23 1
    38   22   59 1
    39   22   60 1
    40   23   24 1
    41   24   25 2
    42   24   26 1
    43   24   27 1
    44   27   28 1
    45   28   29 2
    46   28   30 1
    47   28   31 1
    48   31   33 1
    49   32   33 1
    50   32   34 1
    51   32   35 1
    52   32   36 1
    53   33   61 1
    54   33   62 1
    55   34   63 1
    56   34   64 1
    57   34   65 1
    58   35   66 1
    59   35   67 1
    60   35   68 1
    61   36   37 1
    62   36   38 1
    63   36   69 1
    64   37   70 1
    65   38   39 2
    66   38   40 am
    67   40   41 1
    68   40   71 1
    69   41   42 1
    70   41   72 1
    71   41   73 1
    72   42   43 1
    73   42   74 1
    74   42   75 1
    75   43   44 2
    76   43   45 am
    77   45   46 1
    78   45   76 1
    79   46   47 1
    80   46   77 1
    81   46   78 1
    82   47   48 1
    83   47   79 1
    84   47   80 1
    85   48   81 1
@<TRIPOS>SUBSTRUCTURE
     1 COA         1 GROUP   0 A     ****
