@<TRIPOS>MOLECULE
MRD
   22    21     1     0     0
SMALL
USER_CHARGES

@<TRIPOS>ATOM
      1 C1         70.1350   52.9110    4.9690 C.3       1 MRD        -0.1061
      2 C2         70.7450   51.5500    4.6750 C.3       1 MRD         0.1582
      3 O2         72.1420   51.7830    4.3360 O.3       1 MRD        -0.5960
      4 CM         70.6310   50.5630    5.8370 C.3       1 MRD        -0.1061
      5 C3         70.1310   50.8660    3.4450 C.3       1 MRD        -0.1440
      6 C4         68.6390   50.7720    3.4670 C.3       1 MRD         0.1414
      7 O4         68.1130   49.8140    4.4270 O.3       1 MRD        -0.5999
      8 C5         68.1560   50.2580    2.0960 C.3       1 MRD        -0.1287
      9 H1C1       70.6169   53.3446    5.8577 H         1 MRD         0.0452
     10 H1C2       69.0569   52.7971    5.1554 H         1 MRD         0.0452
     11 H1C3       70.2898   53.5762    4.1067 H         1 MRD         0.0452
     12 H2         72.8104   52.2691    5.0619 H         1 MRD         0.3966
     13 HMC1       71.0607   51.0132    6.7440 H         1 MRD         0.0452
     14 HMC2       71.1786   49.6414    5.5903 H         1 MRD         0.0452
     15 HMC3       69.5717   50.3243    6.0127 H         1 MRD         0.0452
     16 H3C1       70.4024   51.4281    2.5392 H         1 MRD         0.0543
     17 H3C2       70.5148   49.8380    3.3673 H         1 MRD         0.0543
     18 H4         68.2902   51.7672    3.7797 H         1 MRD         0.0798
     19 HA         68.3131   49.9449    5.5007 H         1 MRD         0.3942
     20 H5C1       68.5142   50.9327    1.3045 H         1 MRD         0.0436
     21 H5C2       67.0565   50.2279    2.0823 H         1 MRD         0.0436
     22 H5C3       68.5527   49.2467    1.9231 H         1 MRD         0.0436
@<TRIPOS>BOND
     1    1    2 1
     2    1    9 1
     3    1   10 1
     4    1   11 1
     5    2    3 1
     6    2    4 1
     7    2    5 1
     8    3   12 1
     9    4   13 1
    10    4   14 1
    11    4   15 1
    12    5    6 1
    13    5   16 1
    14    5   17 1
    15    6    7 1
    16    6    8 1
    17    6   18 1
    18    7   19 1
    19    8   20 1
    20    8   21 1
    21    8   22 1
@<TRIPOS>SUBSTRUCTURE
     1 MRD         1 GROUP   0 A     ****
