@<TRIPOS>MOLECULE
AMP
   36    38     1     0     0
SMALL
USER_CHARGES

@<TRIPOS>ATOM
      1 P           8.0430   39.6860   18.8130 P.3       1 AMP         1.4214
      2 O1P         7.7740   40.6370   19.9950 O.2       1 AMP        -0.8349
      3 O2P         6.8830   38.7840   18.6430 O.3       1 AMP        -0.8349
      4 O3P         9.3160   38.8560   19.0920 O.3       1 AMP        -0.7617
      5 O5'         8.2900   40.5340   17.4630 O.3       1 AMP        -0.5591
      6 C5'         9.2750   41.5450   17.4120 C.3       1 AMP         0.1960
      7 C4'         9.9220   41.6170   16.0320 C.3       1 AMP         0.1255
      8 O4'        10.6260   40.4170   15.7520 O.3       1 AMP        -0.3838
      9 C3'         8.8990   41.8150   14.9230 C.3       1 AMP         0.0708
     10 O3'         9.2380   42.9330   14.1330 O.3       1 AMP        -0.5786
     11 C2'         8.9330   40.5290   14.1140 C.3       1 AMP         0.0674
     12 O2'         8.9320   40.7810   12.7260 O.3       1 AMP        -0.5930
     13 C1'        10.2200   39.8280   14.5300 C.3       1 AMP         0.4005
     14 N9         10.0930   38.3690   14.7560 N.pl3     1 AMP        -0.6859
     15 C8          9.3770   37.7670   15.7530 C.ar      1 AMP         0.5411
     16 N7          9.4950   36.4180   15.6450 N.ar      1 AMP        -0.5572
     17 C5         10.2870   36.1600   14.5860 C.ar      1 AMP        -0.2231
     18 C6         10.7070   34.9510   14.0630 C.ar      1 AMP         0.7354
     19 N6         10.3370   33.8060   14.6270 N.pl3     1 AMP        -0.9422
     20 N1         11.5510   34.9950   12.9590 N.ar      1 AMP        -0.7962
     21 C2         11.9150   36.1950   12.3750 C.ar      1 AMP         0.6722
     22 N3         11.4880   37.4030   12.9020 N.ar      1 AMP        -0.7192
     23 C4         10.6720   37.3690   14.0010 C.ar      1 AMP         0.5937
     24 HOP3        9.3624   38.1996   19.9735 H         1 AMP         0.4259
     25 H5'1        8.8132   42.5184   17.6339 H         1 AMP         0.0268
     26 H5'2       10.0574   41.3325   18.1554 H         1 AMP         0.0268
     27 H4'        10.6576   42.4348   16.0389 H         1 AMP         0.0925
     28 H3'         7.8915   42.0792   15.2767 H         1 AMP         0.0597
     29 HO3'        9.2569   43.9375   14.5808 H         1 AMP         0.4040
     30 H2'         8.0238   39.9212   14.2324 H         1 AMP         0.0834
     31 HO2'        8.0722   41.2836   12.2589 H         1 AMP         0.4237
     32 H1'        10.9834   39.9560   13.7484 H         1 AMP         0.1209
     33 H8          8.8060   38.2840   16.5100 H         1 AMP         0.0813
     34 HN61        9.6675   33.8139   15.4997 H         1 AMP         0.4286
     35 HN62       10.7003   32.8503   14.2211 H         1 AMP         0.4286
     36 H2         12.5410   36.1900   11.4950 H         1 AMP         0.0437
@<TRIPOS>BOND
     1    1    2 2
     2    1    3 1
     3    1    4 1
     4    1    5 1
     5    4   24 1
     6    5    6 1
     7    6    7 1
     8    6   25 1
     9    6   26 1
    10    7    8 1
    11    7    9 1
    12    7   27 1
    13    8   13 1
    14    9   10 1
    15    9   11 1
    16    9   28 1
    17   10   29 1
    18   11   12 1
    19   11   13 1
    20   11   30 1
    21   12   31 1
    22   13   14 1
    23   13   32 1
    24   14   15 ar
    25   14   23 ar
    26   15   16 ar
    27   15   33 1
    28   16   17 ar
    29   17   18 ar
    30   17   23 ar
    31   18   19 1
    32   18   20 ar
    33   19   34 1
    34   19   35 1
    35   20   21 ar
    36   21   22 ar
    37   21   36 1
    38   22   23 ar
@<TRIPOS>SUBSTRUCTURE
     1 AMP         1 GROUP   0 A     ****
@<TRIPOS>MOLECULE
[5-(6-aminopurin-9-yl)-3,4-dihydroxy-tetrahydrofuran-2-yl]methyl dihydrogen phosphate
   37    39     1     0     0
SMALL
USER_CHARGES

@<TRIPOS>ATOM
      1 P           8.0430   39.6860   18.8130 P.3       1 AMP         1.6393
      2 O1P         7.7740   40.6370   19.9950 O.2       1 AMP        -0.8338
      3 O2P         6.8830   38.7840   18.6430 O.3       1 AMP        -0.7675
      4 O3P         9.3160   38.8560   19.0920 O.3       1 AMP        -0.7675
      5 O5'         8.2900   40.5340   17.4630 O.3       1 AMP        -0.5305
      6 C5'         9.2750   41.5450   17.4120 C.3       1 AMP         0.1576
      7 C4'         9.9220   41.6170   16.0320 C.3       1 AMP         0.1217
      8 O4'        10.6260   40.4170   15.7520 O.3       1 AMP        -0.4103
      9 C3'         8.8990   41.8150   14.9230 C.3       1 AMP         0.1284
     10 O3'         9.2380   42.9330   14.1330 O.3       1 AMP        -0.5778
     11 C2'         8.9330   40.5290   14.1140 C.3       1 AMP         0.0651
     12 O2'         8.9320   40.7810   12.7260 O.3       1 AMP        -0.5914
     13 C1'        10.2200   39.8280   14.5300 C.3       1 AMP         0.4114
     14 N9         10.0930   38.3690   14.7560 N.pl3     1 AMP        -0.7091
     15 C8          9.3770   37.7670   15.7530 C.ar      1 AMP         0.5380
     16 N7          9.4950   36.4180   15.6450 N.ar      1 AMP        -0.5418
     17 C5         10.2870   36.1600   14.5860 C.ar      1 AMP        -0.2275
     18 C6         10.7070   34.9510   14.0630 C.ar      1 AMP         0.7556
     19 N6         10.3370   33.8060   14.6270 N.pl3     1 AMP        -0.9452
     20 N1         11.5510   34.9950   12.9590 N.ar      1 AMP        -0.7888
     21 C2         11.9150   36.1950   12.3750 C.ar      1 AMP         0.6890
     22 N3         11.4880   37.4030   12.9020 N.ar      1 AMP        -0.7483
     23 C4         10.6720   37.3690   14.0010 C.ar      1 AMP         0.5872
     24 HOP2        6.5704   38.1284   19.4691 H         1 AMP         0.4827
     25 HOP3        9.3624   38.1996   19.9735 H         1 AMP         0.4827
     26 H5'1        8.8132   42.5184   17.6339 H         1 AMP         0.0684
     27 H5'2       10.0574   41.3325   18.1554 H         1 AMP         0.0684
     28 H4'        10.6576   42.4348   16.0389 H         1 AMP         0.1085
     29 H3'         7.8915   42.0792   15.2767 H         1 AMP         0.0620
     30 HO3'        9.2569   43.9375   14.5808 H         1 AMP         0.4313
     31 H2'         8.0238   39.9212   14.2324 H         1 AMP         0.0757
     32 HO2'        8.0722   41.2836   12.2589 H         1 AMP         0.4296
     33 H1'        10.9834   39.9560   13.7484 H         1 AMP         0.1118
     34 H8          8.8060   38.2840   16.5100 H         1 AMP         0.0821
     35 HN61        9.6675   33.8139   15.4997 H         1 AMP         0.4447
     36 HN62       10.7003   32.8503   14.2211 H         1 AMP         0.4447
     37 H2         12.5410   36.1900   11.4950 H         1 AMP         0.0534
@<TRIPOS>BOND
     1    1    2 2
     2    1    3 1
     3    1    4 1
     4    1    5 1
     5    3   24 1
     6    4   25 1
     7    5    6 1
     8    6    7 1
     9    6   26 1
    10    6   27 1
    11    7    8 1
    12    7    9 1
    13    7   28 1
    14    8   13 1
    15    9   10 1
    16    9   11 1
    17    9   29 1
    18   10   30 1
    19   11   12 1
    20   11   13 1
    21   11   31 1
    22   12   32 1
    23   13   14 1
    24   13   33 1
    25   14   15 ar
    26   14   23 ar
    27   15   16 ar
    28   15   34 1
    29   16   17 ar
    30   17   18 ar
    31   17   23 ar
    32   18   19 1
    33   18   20 ar
    34   19   35 1
    35   19   36 1
    36   20   21 ar
    37   21   22 ar
    38   21   37 1
    39   22   23 ar
@<TRIPOS>SUBSTRUCTURE
     1 AMP         1 GROUP   0 A     ****
@<TRIPOS>MOLECULE
[5-(6-amino-7,8-dihydropurin-8-ylium-9-yl)-3,4-dihydroxy-tetrahydrofuran-2-yl]methyl hydrogen phosphate
   37    39     1     0     0
SMALL
USER_CHARGES

@<TRIPOS>ATOM
      1 P           8.0430   39.6860   18.8130 P.3       1 AMP         1.4244
      2 O1P         7.7740   40.6370   19.9950 O.2       1 AMP        -0.8112
      3 O2P         6.8830   38.7840   18.6430 O.3       1 AMP        -0.8112
      4 O3P         9.3160   38.8560   19.0920 O.3       1 AMP        -0.7926
      5 O5'         8.2900   40.5340   17.4630 O.3       1 AMP        -0.5652
      6 C5'         9.2750   41.5450   17.4120 C.3       1 AMP         0.2055
      7 C4'         9.9220   41.6170   16.0320 C.3       1 AMP         0.0664
      8 O4'        10.6260   40.4170   15.7520 O.3       1 AMP        -0.4051
      9 C3'         8.8990   41.8150   14.9230 C.3       1 AMP         0.0867
     10 O3'         9.2380   42.9330   14.1330 O.3       1 AMP        -0.6213
     11 C2'         8.9330   40.5290   14.1140 C.3       1 AMP         0.1254
     12 O2'         8.9320   40.7810   12.7260 O.3       1 AMP        -0.5862
     13 C1'        10.2200   39.8280   14.5300 C.3       1 AMP         0.3841
     14 N9         10.0930   38.3690   14.7560 N.pl3     1 AMP        -0.5384
     15 C8          9.3770   37.7670   15.7530 C.cat     1 AMP         0.2854
     16 N7          9.4950   36.4180   15.6450 N.pl3     1 AMP        -0.5094
     17 C5         10.2870   36.1600   14.5860 C.ar      1 AMP        -0.2817
     18 C6         10.7070   34.9510   14.0630 C.ar      1 AMP         0.7673
     19 N6         10.3370   33.8060   14.6270 N.pl3     1 AMP        -0.9499
     20 N1         11.5510   34.9950   12.9590 N.ar      1 AMP        -0.7495
     21 C2         11.9150   36.1950   12.3750 C.ar      1 AMP         0.7172
     22 N3         11.4880   37.4030   12.9020 N.ar      1 AMP        -0.6833
     23 C4         10.6720   37.3690   14.0010 C.ar      1 AMP         0.6418
     24 HOP3        9.3624   38.1996   19.9735 H         1 AMP         0.4343
     25 H5'1        8.8132   42.5184   17.6339 H         1 AMP         0.0225
     26 H5'2       10.0574   41.3325   18.1554 H         1 AMP         0.0225
     27 H4'        10.6576   42.4348   16.0389 H         1 AMP         0.1227
     28 H3'         7.8915   42.0792   15.2767 H         1 AMP         0.1271
     29 HO3'        9.2569   43.9375   14.5808 H         1 AMP         0.4390
     30 H2'         8.0238   39.9212   14.2324 H         1 AMP         0.0686
     31 HO2'        8.0722   41.2836   12.2589 H         1 AMP         0.4480
     32 H1'        10.9834   39.9560   13.7484 H         1 AMP         0.1432
     33 H8          8.8060   38.2840   16.5100 H         1 AMP         0.2762
     34 HN61        9.6675   33.8139   15.4997 H         1 AMP         0.4555
     35 HN62       10.7003   32.8503   14.2211 H         1 AMP         0.4555
     36 H2         12.5410   36.1900   11.4950 H         1 AMP         0.0857
     37 H37         8.9814   35.7617   16.3630 H         1 AMP         0.5000
@<TRIPOS>BOND
     1    1    2 2
     2    1    3 1
     3    1    4 1
     4    1    5 1
     5    4   24 1
     6    5    6 1
     7    6    7 1
     8    6   25 1
     9    6   26 1
    10    7    8 1
    11    7    9 1
    12    7   27 1
    13    8   13 1
    14    9   10 1
    15    9   11 1
    16    9   28 1
    17   10   29 1
    18   11   12 1
    19   11   13 1
    20   11   30 1
    21   12   31 1
    22   13   14 1
    23   13   32 1
    24   14   15 ar
    25   14   23 ar
    26   15   16 ar
    27   15   33 1
    28   16   17 ar
    29   16   37 1
    30   17   18 ar
    31   17   23 ar
    32   18   19 1
    33   18   20 ar
    34   19   34 1
    35   19   35 1
    36   20   21 ar
    37   21   22 ar
    38   21   36 1
    39   22   23 ar
@<TRIPOS>SUBSTRUCTURE
     1 AMP         1 GROUP   0 A     ****
@<TRIPOS>MOLECULE
[5-(6-aminopurin-9-yl)-3,4-dihydroxy-tetrahydrofuran-2-yl]methyl phosphate
   35    37     1     0     0
SMALL
USER_CHARGES

@<TRIPOS>ATOM
      1 P           8.0430   39.6860   18.8130 P.3       1 AMP         1.3130
      2 O1P         7.7740   40.6370   19.9950 O.2       1 AMP        -0.9269
      3 O2P         6.8830   38.7840   18.6430 O.3       1 AMP        -0.9269
      4 O3P         9.3160   38.8560   19.0920 O.3       1 AMP        -0.9269
      5 O5'         8.2900   40.5340   17.4630 O.3       1 AMP        -0.5415
      6 C5'         9.2750   41.5450   17.4120 C.3       1 AMP         0.2446
      7 C4'         9.9220   41.6170   16.0320 C.3       1 AMP         0.0612
      8 O4'        10.6260   40.4170   15.7520 O.3       1 AMP        -0.3747
      9 C3'         8.8990   41.8150   14.9230 C.3       1 AMP         0.0725
     10 O3'         9.2380   42.9330   14.1330 O.3       1 AMP        -0.6276
     11 C2'         8.9330   40.5290   14.1140 C.3       1 AMP         0.1052
     12 O2'         8.9320   40.7810   12.7260 O.3       1 AMP        -0.6019
     13 C1'        10.2200   39.8280   14.5300 C.3       1 AMP         0.3966
     14 N9         10.0930   38.3690   14.7560 N.pl3     1 AMP        -0.6780
     15 C8          9.3770   37.7670   15.7530 C.ar      1 AMP         0.5765
     16 N7          9.4950   36.4180   15.6450 N.ar      1 AMP        -0.5862
     17 C5         10.2870   36.1600   14.5860 C.ar      1 AMP        -0.2025
     18 C6         10.7070   34.9510   14.0630 C.ar      1 AMP         0.7005
     19 N6         10.3370   33.8060   14.6270 N.pl3     1 AMP        -0.9272
     20 N1         11.5510   34.9950   12.9590 N.ar      1 AMP        -0.8018
     21 C2         11.9150   36.1950   12.3750 C.ar      1 AMP         0.6468
     22 N3         11.4880   37.4030   12.9020 N.ar      1 AMP        -0.7059
     23 C4         10.6720   37.3690   14.0010 C.ar      1 AMP         0.5659
     24 H5'1        8.8132   42.5184   17.6339 H         1 AMP         0.0026
     25 H5'2       10.0574   41.3325   18.1554 H         1 AMP         0.0026
     26 H4'        10.6576   42.4348   16.0389 H         1 AMP         0.0652
     27 H3'         7.8915   42.0792   15.2767 H         1 AMP         0.0670
     28 HO3'        9.2569   43.9375   14.5808 H         1 AMP         0.4375
     29 H2'         8.0238   39.9212   14.2324 H         1 AMP         0.0692
     30 HO2'        8.0722   41.2836   12.2589 H         1 AMP         0.4237
     31 H1'        10.9834   39.9560   13.7484 H         1 AMP         0.0996
     32 H8          8.8060   38.2840   16.5100 H         1 AMP         0.1272
     33 HN61        9.6675   33.8139   15.4997 H         1 AMP         0.4092
     34 HN62       10.7003   32.8503   14.2211 H         1 AMP         0.4092
     35 H2         12.5410   36.1900   11.4950 H         1 AMP         0.0323
@<TRIPOS>BOND
     1    1    2 2
     2    1    3 1
     3    1    4 1
     4    1    5 1
     5    5    6 1
     6    6    7 1
     7    6   24 1
     8    6   25 1
     9    7    8 1
    10    7    9 1
    11    7   26 1
    12    8   13 1
    13    9   10 1
    14    9   11 1
    15    9   27 1
    16   10   28 1
    17   11   12 1
    18   11   13 1
    19   11   29 1
    20   12   30 1
    21   13   14 1
    22   13   31 1
    23   14   15 ar
    24   14   23 ar
    25   15   16 ar
    26   15   32 1
    27   16   17 ar
    28   17   18 ar
    29   17   23 ar
    30   18   19 1
    31   18   20 ar
    32   19   33 1
    33   19   34 1
    34   20   21 ar
    35   21   22 ar
    36   21   35 1
    37   22   23 ar
@<TRIPOS>SUBSTRUCTURE
     1 AMP         1 GROUP   0 A     ****
@<TRIPOS>MOLECULE
[5-(6-amino-7,8-dihydropurin-8-ylium-9-yl)-3,4-dihydroxy-tetrahydrofuran-2-yl]methyl dihydrogen phosphate
   38    40     1     0     0
SMALL
USER_CHARGES

@<TRIPOS>ATOM
      1 P           8.0430   39.6860   18.8130 P.3       1 AMP         1.6458
      2 O1P         7.7740   40.6370   19.9950 O.2       1 AMP        -0.8133
      3 O2P         6.8830   38.7840   18.6430 O.3       1 AMP        -0.7725
      4 O3P         9.3160   38.8560   19.0920 O.3       1 AMP        -0.7725
      5 O5'         8.2900   40.5340   17.4630 O.3       1 AMP        -0.5416
      6 C5'         9.2750   41.5450   17.4120 C.3       1 AMP         0.1675
      7 C4'         9.9220   41.6170   16.0320 C.3       1 AMP         0.0819
      8 O4'        10.6260   40.4170   15.7520 O.3       1 AMP        -0.3828
      9 C3'         8.8990   41.8150   14.9230 C.3       1 AMP         0.0748
     10 O3'         9.2380   42.9330   14.1330 O.3       1 AMP        -0.5720
     11 C2'         8.9330   40.5290   14.1140 C.3       1 AMP         0.1280
     12 O2'         8.9320   40.7810   12.7260 O.3       1 AMP        -0.5703
     13 C1'        10.2200   39.8280   14.5300 C.3       1 AMP         0.4132
     14 N9         10.0930   38.3690   14.7560 N.pl3     1 AMP        -0.5728
     15 C8          9.3770   37.7670   15.7530 C.cat     1 AMP         0.2693
     16 N7          9.4950   36.4180   15.6450 N.pl3     1 AMP        -0.4885
     17 C5         10.2870   36.1600   14.5860 C.ar      1 AMP        -0.2896
     18 C6         10.7070   34.9510   14.0630 C.ar      1 AMP         0.7810
     19 N6         10.3370   33.8060   14.6270 N.pl3     1 AMP        -0.9377
     20 N1         11.5510   34.9950   12.9590 N.ar      1 AMP        -0.7380
     21 C2         11.9150   36.1950   12.3750 C.ar      1 AMP         0.7320
     22 N3         11.4880   37.4030   12.9020 N.ar      1 AMP        -0.6928
     23 C4         10.6720   37.3690   14.0010 C.ar      1 AMP         0.6393
     24 HOP2        6.5704   38.1284   19.4691 H         1 AMP         0.5019
     25 HOP3        9.3624   38.1996   19.9735 H         1 AMP         0.5019
     26 H5'1        8.8132   42.5184   17.6339 H         1 AMP         0.0498
     27 H5'2       10.0574   41.3325   18.1554 H         1 AMP         0.0498
     28 H4'        10.6576   42.4348   16.0389 H         1 AMP         0.1254
     29 H3'         7.8915   42.0792   15.2767 H         1 AMP         0.0503
     30 HO3'        9.2569   43.9375   14.5808 H         1 AMP         0.4337
     31 H2'         8.0238   39.9212   14.2324 H         1 AMP         0.0807
     32 HO2'        8.0722   41.2836   12.2589 H         1 AMP         0.4536
     33 H1'        10.9834   39.9560   13.7484 H         1 AMP         0.1698
     34 H8          8.8060   38.2840   16.5100 H         1 AMP         0.2617
     35 HN61        9.6675   33.8139   15.4997 H         1 AMP         0.4649
     36 HN62       10.7003   32.8503   14.2211 H         1 AMP         0.4649
     37 H2         12.5410   36.1900   11.4950 H         1 AMP         0.0966
     38 H38         8.9814   35.7617   16.3630 H         1 AMP         0.5064
@<TRIPOS>BOND
     1    1    2 2
     2    1    3 1
     3    1    4 1
     4    1    5 1
     5    3   24 1
     6    4   25 1
     7    5    6 1
     8    6    7 1
     9    6   26 1
    10    6   27 1
    11    7    8 1
    12    7    9 1
    13    7   28 1
    14    8   13 1
    15    9   10 1
    16    9   11 1
    17    9   29 1
    18   10   30 1
    19   11   12 1
    20   11   13 1
    21   11   31 1
    22   12   32 1
    23   13   14 1
    24   13   33 1
    25   14   15 ar
    26   14   23 ar
    27   15   16 ar
    28   15   34 1
    29   16   17 ar
    30   16   38 1
    31   17   18 ar
    32   17   23 ar
    33   18   19 1
    34   18   20 ar
    35   19   35 1
    36   19   36 1
    37   20   21 ar
    38   21   22 ar
    39   21   37 1
    40   22   23 ar
@<TRIPOS>SUBSTRUCTURE
     1 AMP         1 GROUP   0 A     ****
@<TRIPOS>MOLECULE
[5-(6-amino-1,8-dihydropurine-6,8-diylium-7-id-9-yl)-3,4-dihydroxy-tetrahydrofuran-2-yl]methyl hydrogen phosphate
   37    39     1     0     0
SMALL
USER_CHARGES

@<TRIPOS>ATOM
      1 P           8.0430   39.6860   18.8130 P.3       1 AMP         1.4240
      2 O1P         7.7740   40.6370   19.9950 O.2       1 AMP        -0.8207
      3 O2P         6.8830   38.7840   18.6430 O.3       1 AMP        -0.8207
      4 O3P         9.3160   38.8560   19.0920 O.3       1 AMP        -0.7882
      5 O5'         8.2900   40.5340   17.4630 O.3       1 AMP        -0.5550
      6 C5'         9.2750   41.5450   17.4120 C.3       1 AMP         0.2084
      7 C4'         9.9220   41.6170   16.0320 C.3       1 AMP         0.1027
      8 O4'        10.6260   40.4170   15.7520 O.3       1 AMP        -0.3595
      9 C3'         8.8990   41.8150   14.9230 C.3       1 AMP         0.0752
     10 O3'         9.2380   42.9330   14.1330 O.3       1 AMP        -0.5740
     11 C2'         8.9330   40.5290   14.1140 C.3       1 AMP         0.0831
     12 O2'         8.9320   40.7810   12.7260 O.3       1 AMP        -0.5814
     13 C1'        10.2200   39.8280   14.5300 C.3       1 AMP         0.3801
     14 N9         10.0930   38.3690   14.7560 N.pl3     1 AMP        -0.4508
     15 C8          9.3770   37.7670   15.7530 C.cat     1 AMP         0.1835
     16 N7          9.4950   36.4180   15.6450 N.ar      1 AMP        -0.2697
     17 C5         10.2870   36.1600   14.5860 C.ar      1 AMP        -0.1408
     18 C6         10.7070   34.9510   14.0630 C.cat     1 AMP         0.4859
     19 N6         10.3370   33.8060   14.6270 N.pl3     1 AMP        -0.8190
     20 N1         11.5510   34.9950   12.9590 N.pl3     1 AMP        -0.6958
     21 C2         11.9150   36.1950   12.3750 C.ar      1 AMP         0.6273
     22 N3         11.4880   37.4030   12.9020 N.ar      1 AMP        -0.5150
     23 C4         10.6720   37.3690   14.0010 C.ar      1 AMP         0.2813
     24 HOP3        9.3624   38.1996   19.9735 H         1 AMP         0.4362
     25 H5'1        8.8132   42.5184   17.6339 H         1 AMP         0.0272
     26 H5'2       10.0574   41.3325   18.1554 H         1 AMP         0.0272
     27 H4'        10.6576   42.4348   16.0389 H         1 AMP         0.1096
     28 H3'         7.8915   42.0792   15.2767 H         1 AMP         0.0687
     29 HO3'        9.2569   43.9375   14.5808 H         1 AMP         0.4162
     30 H2'         8.0238   39.9212   14.2324 H         1 AMP         0.0794
     31 HO2'        8.0722   41.2836   12.2589 H         1 AMP         0.4385
     32 H1'        10.9834   39.9560   13.7484 H         1 AMP         0.1269
     33 H8          8.8060   38.2840   16.5100 H         1 AMP         0.2775
     34 HN61        9.6675   33.8139   15.4997 H         1 AMP         0.4792
     35 HN62       10.7003   32.8503   14.2211 H         1 AMP         0.4792
     36 H2         12.5410   36.1900   11.4950 H         1 AMP         0.0960
     37 H37        11.9452   34.0617   12.5305 H         1 AMP         0.4773
@<TRIPOS>BOND
     1    1    2 2
     2    1    3 1
     3    1    4 1
     4    1    5 1
     5    4   24 1
     6    5    6 1
     7    6    7 1
     8    6   25 1
     9    6   26 1
    10    7    8 1
    11    7    9 1
    12    7   27 1
    13    8   13 1
    14    9   10 1
    15    9   11 1
    16    9   28 1
    17   10   29 1
    18   11   12 1
    19   11   13 1
    20   11   30 1
    21   12   31 1
    22   13   14 1
    23   13   32 1
    24   14   15 ar
    25   14   23 ar
    26   15   16 ar
    27   15   33 1
    28   16   17 ar
    29   17   18 ar
    30   17   23 ar
    31   18   19 1
    32   18   20 ar
    33   19   34 1
    34   19   35 1
    35   20   21 ar
    36   20   37 1
    37   21   22 ar
    38   21   36 1
    39   22   23 ar
@<TRIPOS>SUBSTRUCTURE
     1 AMP         1 GROUP   0 A     ****
@<TRIPOS>MOLECULE
[5-(6-amino-1,8-dihydropurine-6,8-diylium-7-id-9-yl)-3,4-dihydroxy-tetrahydrofuran-2-yl]methyl dihydrogen phosphate
   38    40     1     0     0
SMALL
USER_CHARGES

@<TRIPOS>ATOM
      1 P           8.0430   39.6860   18.8130 P.3       1 AMP         1.6410
      2 O1P         7.7740   40.6370   19.9950 O.2       1 AMP        -0.8254
      3 O2P         6.8830   38.7840   18.6430 O.3       1 AMP        -0.7685
      4 O3P         9.3160   38.8560   19.0920 O.3       1 AMP        -0.7685
      5 O5'         8.2900   40.5340   17.4630 O.3       1 AMP        -0.5291
      6 C5'         9.2750   41.5450   17.4120 C.3       1 AMP         0.1583
      7 C4'         9.9220   41.6170   16.0320 C.3       1 AMP         0.0882
      8 O4'        10.6260   40.4170   15.7520 O.3       1 AMP        -0.3799
      9 C3'         8.8990   41.8150   14.9230 C.3       1 AMP         0.0781
     10 O3'         9.2380   42.9330   14.1330 O.3       1 AMP        -0.5811
     11 C2'         8.9330   40.5290   14.1140 C.3       1 AMP         0.1280
     12 O2'         8.9320   40.7810   12.7260 O.3       1 AMP        -0.5797
     13 C1'        10.2200   39.8280   14.5300 C.3       1 AMP         0.4076
     14 N9         10.0930   38.3690   14.7560 N.pl3     1 AMP        -0.4657
     15 C8          9.3770   37.7670   15.7530 C.cat     1 AMP         0.1614
     16 N7          9.4950   36.4180   15.6450 N.ar      1 AMP        -0.2511
     17 C5         10.2870   36.1600   14.5860 C.ar      1 AMP        -0.1462
     18 C6         10.7070   34.9510   14.0630 C.cat     1 AMP         0.4959
     19 N6         10.3370   33.8060   14.6270 N.pl3     1 AMP        -0.8037
     20 N1         11.5510   34.9950   12.9590 N.pl3     1 AMP        -0.6928
     21 C2         11.9150   36.1950   12.3750 C.ar      1 AMP         0.6485
     22 N3         11.4880   37.4030   12.9020 N.ar      1 AMP        -0.5223
     23 C4         10.6720   37.3690   14.0010 C.ar      1 AMP         0.3006
     24 HOP2        6.5704   38.1284   19.4691 H         1 AMP         0.4958
     25 HOP3        9.3624   38.1996   19.9735 H         1 AMP         0.4958
     26 H5'1        8.8132   42.5184   17.6339 H         1 AMP         0.0557
     27 H5'2       10.0574   41.3325   18.1554 H         1 AMP         0.0557
     28 H4'        10.6576   42.4348   16.0389 H         1 AMP         0.1213
     29 H3'         7.8915   42.0792   15.2767 H         1 AMP         0.0598
     30 HO3'        9.2569   43.9375   14.5808 H         1 AMP         0.4345
     31 H2'         8.0238   39.9212   14.2324 H         1 AMP         0.0750
     32 HO2'        8.0722   41.2836   12.2589 H         1 AMP         0.4520
     33 H1'        10.9834   39.9560   13.7484 H         1 AMP         0.1501
     34 H8          8.8060   38.2840   16.5100 H         1 AMP         0.2411
     35 HN61        9.6675   33.8139   15.4997 H         1 AMP         0.4863
     36 HN62       10.7003   32.8503   14.2211 H         1 AMP         0.4863
     37 H2         12.5410   36.1900   11.4950 H         1 AMP         0.1084
     38 H38        11.9452   34.0617   12.5305 H         1 AMP         0.4885
@<TRIPOS>BOND
     1    1    2 2
     2    1    3 1
     3    1    4 1
     4    1    5 1
     5    3   24 1
     6    4   25 1
     7    5    6 1
     8    6    7 1
     9    6   26 1
    10    6   27 1
    11    7    8 1
    12    7    9 1
    13    7   28 1
    14    8   13 1
    15    9   10 1
    16    9   11 1
    17    9   29 1
    18   10   30 1
    19   11   12 1
    20   11   13 1
    21   11   31 1
    22   12   32 1
    23   13   14 1
    24   13   33 1
    25   14   15 ar
    26   14   23 ar
    27   15   16 ar
    28   15   34 1
    29   16   17 ar
    30   17   18 ar
    31   17   23 ar
    32   18   19 1
    33   18   20 ar
    34   19   35 1
    35   19   36 1
    36   20   21 ar
    37   20   38 1
    38   21   22 ar
    39   21   37 1
    40   22   23 ar
@<TRIPOS>SUBSTRUCTURE
     1 AMP         1 GROUP   0 A     ****
