@<TRIPOS>MOLECULE
DTT
   18    17     1     0     0
SMALL
USER_CHARGES

@<TRIPOS>ATOM
      1 S1          3.6130   21.8750   25.3710 S.3       1 DTT        -0.3564
      2 C1          2.1140   21.6520   24.3500 C.3       1 DTT         0.0011
      3 C2          1.3170   22.8990   24.0120 C.3       1 DTT         0.1284
      4 O2          0.5700   23.1840   25.1820 O.3       1 DTT        -0.5843
      5 C3          0.3130   22.7130   22.8140 C.3       1 DTT         0.1284
      6 O3         -0.9220   23.3320   23.2010 O.3       1 DTT        -0.5843
      7 C4          0.7400   23.4630   21.5380 C.3       1 DTT         0.0011
      8 S4          2.3950   23.1260   20.7570 S.3       1 DTT        -0.3564
      9 HS1         4.2267   21.0041   25.6446 H         1 DTT         0.2020
     10 H11         2.3920   21.2083   23.3826 H         1 DTT         0.0773
     11 H12         1.4114   20.9850   24.8710 H         1 DTT         0.0773
     12 H2          2.0054   23.7273   23.7883 H         1 DTT         0.0487
     13 HO2         1.0877   23.3495   26.1384 H         1 DTT         0.4060
     14 H3          0.1780   21.6422   22.6012 H         1 DTT         0.0487
     15 HO3        -1.4548   22.9830   24.0979 H         1 DTT         0.4060
     16 H41         0.0222   23.2525   20.7315 H         1 DTT         0.0773
     17 H42         0.7602   24.5445   21.7378 H         1 DTT         0.0773
     18 HS2         2.6932   23.6653   19.8459 H         1 DTT         0.2020
@<TRIPOS>BOND
     1    1    2 1
     2    1    9 1
     3    2    3 1
     4    2   10 1
     5    2   11 1
     6    3    4 1
     7    3    5 1
     8    3   12 1
     9    4   13 1
    10    5    6 1
    11    5    7 1
    12    5   14 1
    13    6   15 1
    14    7    8 1
    15    7   16 1
    16    7   17 1
    17    8   18 1
@<TRIPOS>SUBSTRUCTURE
     1 DTT         1 GROUP   0 A     ****
@<TRIPOS>MOLECULE
2,3-dihydroxy-4-sulfanyl-butane-1-thiolate
   17    16     1     0     0
SMALL
USER_CHARGES

@<TRIPOS>ATOM
      1 S1          3.6130   21.8750   25.3710 S.3       1 DTT        -0.9707
      2 C1          2.1140   21.6520   24.3500 C.3       1 DTT         0.0455
      3 C2          1.3170   22.8990   24.0120 C.3       1 DTT         0.1479
      4 O2          0.5700   23.1840   25.1820 O.3       1 DTT        -0.6548
      5 C3          0.3130   22.7130   22.8140 C.3       1 DTT         0.1335
      6 O3         -0.9220   23.3320   23.2010 O.3       1 DTT        -0.5833
      7 C4          0.7400   23.4630   21.5380 C.3       1 DTT        -0.0088
      8 S4          2.3950   23.1260   20.7570 S.3       1 DTT        -0.4528
      9 H11         2.3920   21.2083   23.3826 H         1 DTT         0.0130
     10 H12         1.4114   20.9850   24.8710 H         1 DTT         0.0130
     11 H2          2.0054   23.7273   23.7883 H         1 DTT         0.0719
     12 HO2         1.0877   23.3495   26.1384 H         1 DTT         0.4378
     13 H3          0.1780   21.6422   22.6012 H         1 DTT         0.0211
     14 HO3        -1.4548   22.9830   24.0979 H         1 DTT         0.3899
     15 H41         0.0222   23.2525   20.7315 H         1 DTT         0.0943
     16 H42         0.7602   24.5445   21.7378 H         1 DTT         0.0943
     17 HS2         2.6932   23.6653   19.8459 H         1 DTT         0.2082
@<TRIPOS>BOND
     1    1    2 1
     2    2    3 1
     3    2    9 1
     4    2   10 1
     5    3    4 1
     6    3    5 1
     7    3   11 1
     8    4   12 1
     9    5    6 1
    10    5    7 1
    11    5   13 1
    12    6   14 1
    13    7    8 1
    14    7   15 1
    15    7   16 1
    16    8   17 1
@<TRIPOS>SUBSTRUCTURE
     1 DTT         1 GROUP   0 A     ****
@<TRIPOS>MOLECULE
2,3-dihydroxybutane-1,4-dithiolate
   16    15     1     0     0
SMALL
USER_CHARGES

@<TRIPOS>ATOM
      1 S1          3.6130   21.8750   25.3710 S.3       1 DTT        -1.0444
      2 C1          2.1140   21.6520   24.3500 C.3       1 DTT         0.0630
      3 C2          1.3170   22.8990   24.0120 C.3       1 DTT         0.1427
      4 O2          0.5700   23.1840   25.1820 O.3       1 DTT        -0.6482
      5 C3          0.3130   22.7130   22.8140 C.3       1 DTT         0.1427
      6 O3         -0.9220   23.3320   23.2010 O.3       1 DTT        -0.6482
      7 C4          0.7400   23.4630   21.5380 C.3       1 DTT         0.0630
      8 S4          2.3950   23.1260   20.7570 S.3       1 DTT        -1.0443
      9 H11         2.3920   21.2083   23.3826 H         1 DTT         0.0176
     10 H12         1.4114   20.9850   24.8710 H         1 DTT         0.0176
     11 H2          2.0054   23.7273   23.7883 H         1 DTT         0.0288
     12 HO2         1.0877   23.3495   26.1384 H         1 DTT         0.4229
     13 H3          0.1780   21.6422   22.6012 H         1 DTT         0.0288
     14 HO3        -1.4548   22.9830   24.0979 H         1 DTT         0.4229
     15 H41         0.0222   23.2525   20.7315 H         1 DTT         0.0176
     16 H42         0.7602   24.5445   21.7378 H         1 DTT         0.0176
@<TRIPOS>BOND
     1    1    2 1
     2    2    3 1
     3    2    9 1
     4    2   10 1
     5    3    4 1
     6    3    5 1
     7    3   11 1
     8    4   12 1
     9    5    6 1
    10    5    7 1
    11    5   13 1
    12    6   14 1
    13    7    8 1
    14    7   15 1
    15    7   16 1
@<TRIPOS>SUBSTRUCTURE
     1 DTT         1 GROUP   0 A     ****
