@<TRIPOS>MOLECULE
CRO
   38    39     1     0     0
SMALL
USER_CHARGES

@<TRIPOS>ATOM
      1 N1         24.0770   27.5130   36.6100 N.3       1 CRO        -0.9216
      2 CA1        25.0110   26.4780   37.0780 C.3       1 CRO         0.1239
      3 CB1        25.9310   26.0350   35.9300 C.3       1 CRO         0.1529
      4 CG1        25.1550   25.4220   34.7960 C.3       1 CRO        -0.0943
      5 OG1        26.6790   27.1290   35.4610 O.3       1 CRO        -0.6262
      6 C1         25.7300   27.1060   38.2450 C.2       1 CRO         0.3310
      7 N2         26.9750   27.7320   38.2160 N.2       1 CRO        -0.5979
      8 N3         25.2740   27.1240   39.5090 N.am      1 CRO        -0.3806
      9 C2         26.0430   27.8750   40.3700 C.2       1 CRO         0.6924
     10 O2         26.0220   27.9620   41.5660 O.2       1 CRO        -0.6178
     11 CA2        27.1970   28.2450   39.5120 C.2       1 CRO        -0.1217
     12 CA3        23.9190   26.7210   39.8420 C.3       1 CRO        -0.0176
     13 C3         23.7450   25.3260   40.3600 C.2       1 CRO         0.9236
     14 O3         22.8850   25.1160   41.1930 O.co2     1 CRO        -0.8345
     15 CB2        28.3290   28.8220   39.9600 C.2       1 CRO         0.0917
     16 CG2        29.4370   29.3700   39.1240 C.ar      1 CRO        -0.2813
     17 CD1        29.5410   29.1030   37.7420 C.ar      1 CRO        -0.0120
     18 CD2        30.4870   30.1100   39.8050 C.ar      1 CRO        -0.0120
     19 CE1        30.7070   29.5460   37.0330 C.ar      1 CRO        -0.3425
     20 CE2        31.6140   30.5630   39.0850 C.ar      1 CRO        -0.3425
     21 CZ         31.7180   30.3000   37.7210 C.ar      1 CRO         0.5661
     22 OH         32.8940   30.8040   36.9710 O.3       1 CRO        -0.7856
     23 OXT        24.5350   24.3830   39.8490 O.co2     1 CRO        -0.8345
     24 HN11       23.4249   27.8210   37.4406 H         1 CRO         0.3547
     25 H2         24.6449   28.3826   36.2478 H         1 CRO         0.3547
     26 HA1        24.4866   25.5705   37.4120 H         1 CRO         0.0789
     27 HB1        26.6760   25.3089   36.2875 H         1 CRO         0.0530
     28 HG11       24.5725   24.5672   35.1702 H         1 CRO         0.0507
     29 HG12       25.8526   25.0780   34.0181 H         1 CRO         0.0507
     30 HG13       24.4726   26.1727   34.3707 H         1 CRO         0.0507
     31 HOG1       27.3108   27.7017   36.1559 H         1 CRO         0.4026
     32 HA31       23.5211   27.3840   40.6244 H         1 CRO         0.0178
     33 HA32       23.2851   26.7901   38.9456 H         1 CRO         0.0178
     34 HB2        28.5035   28.9243   41.0412 H         1 CRO         0.1150
     35 HD1        28.7540   28.5730   37.2260 H         1 CRO         0.0977
     36 HD2        30.4050   30.3130   40.8620 H         1 CRO         0.0977
     37 HE1        30.8240   29.3130   35.9850 H         1 CRO         0.0997
     38 HE2        32.3940   31.1120   39.5910 H         1 CRO         0.0997
@<TRIPOS>BOND
     1    1    2 1
     2    1   24 1
     3    1   25 1
     4    2    6 1
     5    2   26 1
     6    2    3 1
     7    3   27 1
     8    3    4 1
     9    3    5 1
    10    4   28 1
    11    4   29 1
    12    4   30 1
    13    5   31 1
    14    6    8 1
    15    6    7 2
    16    7   11 1
    17    8   12 1
    18    8    9 am
    19    9   10 2
    20    9   11 1
    21   11   15 2
    22   12   13 1
    23   12   32 1
    24   12   33 1
    25   13   14 2
    26   13   23 1
    27   15   34 1
    28   15   16 1
    29   16   18 ar
    30   16   17 ar
    31   17   35 1
    32   17   19 ar
    33   18   36 1
    34   18   20 ar
    35   19   21 ar
    36   19   37 1
    37   20   38 1
    38   20   21 ar
    39   21   22 1
@<TRIPOS>SUBSTRUCTURE
     1 CRO         1 GROUP   0 A     ****
@<TRIPOS>MOLECULE
2-[2-(1-amino-2-oxido-propyl)-4-[(4-oxidophenyl)methylene]-5-oxo-imidazol-1-yl]acetate
   37    38     1     0     0
SMALL
USER_CHARGES

@<TRIPOS>ATOM
      1 N1         24.0770   27.5130   36.6100 N.3       1 CRO        -0.8790
      2 CA1        25.0110   26.4780   37.0780 C.3       1 CRO         0.0483
      3 CB1        25.9310   26.0350   35.9300 C.3       1 CRO         0.4261
      4 CG1        25.1550   25.4220   34.7960 C.3       1 CRO        -0.1394
      5 OG1        26.6790   27.1290   35.4610 O.3       1 CRO        -0.9035
      6 C1         25.7300   27.1060   38.2450 C.2       1 CRO         0.4273
      7 N2         26.9750   27.7320   38.2160 N.2       1 CRO        -0.6040
      8 N3         25.2740   27.1240   39.5090 N.am      1 CRO        -0.4013
      9 C2         26.0430   27.8750   40.3700 C.2       1 CRO         0.6718
     10 O2         26.0220   27.9620   41.5660 O.2       1 CRO        -0.6807
     11 CA2        27.1970   28.2450   39.5120 C.2       1 CRO        -0.0392
     12 CA3        23.9190   26.7210   39.8420 C.3       1 CRO        -0.0037
     13 C3         23.7450   25.3260   40.3600 C.2       1 CRO         0.9052
     14 O3         22.8850   25.1160   41.1930 O.co2     1 CRO        -0.8529
     15 CB2        28.3290   28.8220   39.9600 C.2       1 CRO         0.0168
     16 CG2        29.4370   29.3700   39.1240 C.ar      1 CRO        -0.2474
     17 CD1        29.5410   29.1030   37.7420 C.ar      1 CRO        -0.0247
     18 CD2        30.4870   30.1100   39.8050 C.ar      1 CRO        -0.0247
     19 CE1        30.7070   29.5460   37.0330 C.ar      1 CRO        -0.3483
     20 CE2        31.6140   30.5630   39.0850 C.ar      1 CRO        -0.3483
     21 CZ         31.7180   30.3000   37.7210 C.ar      1 CRO         0.5569
     22 OH         32.8940   30.8040   36.9710 O.3       1 CRO        -0.8421
     23 OXT        24.5350   24.3830   39.8490 O.co2     1 CRO        -0.8529
     24 HN11       23.4249   27.8210   37.4406 H         1 CRO         0.3147
     25 H2         24.6449   28.3826   36.2478 H         1 CRO         0.3147
     26 HA1        24.4866   25.5705   37.4120 H         1 CRO         0.0796
     27 HB1        26.6760   25.3089   36.2875 H         1 CRO        -0.0767
     28 HG11       24.5725   24.5672   35.1702 H         1 CRO        -0.0001
     29 HG12       25.8526   25.0780   34.0181 H         1 CRO        -0.0001
     30 HG13       24.4726   26.1727   34.3707 H         1 CRO        -0.0001
     31 HA31       23.5211   27.3840   40.6244 H         1 CRO         0.0315
     32 HA32       23.2851   26.7901   38.9456 H         1 CRO         0.0315
     33 HB2        28.5035   28.9243   41.0412 H         1 CRO         0.0959
     34 HD1        28.7540   28.5730   37.2260 H         1 CRO         0.0879
     35 HD2        30.4050   30.3130   40.8620 H         1 CRO         0.0879
     36 HE1        30.8240   29.3130   35.9850 H         1 CRO         0.0865
     37 HE2        32.3940   31.1120   39.5910 H         1 CRO         0.0865
@<TRIPOS>BOND
     1    1    2 1
     2    1   24 1
     3    1   25 1
     4    2    6 1
     5    2   26 1
     6    2    3 1
     7    3   27 1
     8    3    4 1
     9    3    5 1
    10    4   28 1
    11    4   29 1
    12    4   30 1
    13    6    8 1
    14    6    7 2
    15    7   11 1
    16    8   12 1
    17    8    9 am
    18    9   10 2
    19    9   11 1
    20   11   15 2
    21   12   13 1
    22   12   31 1
    23   12   32 1
    24   13   14 2
    25   13   23 1
    26   15   33 1
    27   15   16 1
    28   16   18 ar
    29   16   17 ar
    30   17   34 1
    31   17   19 ar
    32   18   35 1
    33   18   20 ar
    34   19   21 ar
    35   19   36 1
    36   20   37 1
    37   20   21 ar
    38   21   22 1
@<TRIPOS>SUBSTRUCTURE
     1 CRO         1 GROUP   0 A     ****
@<TRIPOS>MOLECULE
2-[2-(1-amino-2-hydroxy-propyl)-4-[(4-hydroxyphenyl)methylene]-5-oxo-imidazol-1-yl]acetate
   39    40     1     0     0
SMALL
USER_CHARGES

@<TRIPOS>ATOM
      1 N1         24.0770   27.5130   36.6100 N.3       1 CRO        -0.9139
      2 CA1        25.0110   26.4780   37.0780 C.3       1 CRO         0.1108
      3 CB1        25.9310   26.0350   35.9300 C.3       1 CRO         0.1569
      4 CG1        25.1550   25.4220   34.7960 C.3       1 CRO        -0.0987
      5 OG1        26.6790   27.1290   35.4610 O.3       1 CRO        -0.6093
      6 C1         25.7300   27.1060   38.2450 C.2       1 CRO         0.4235
      7 N2         26.9750   27.7320   38.2160 N.2       1 CRO        -0.6759
      8 N3         25.2740   27.1240   39.5090 N.am      1 CRO        -0.3669
      9 C2         26.0430   27.8750   40.3700 C.2       1 CRO         0.6794
     10 O2         26.0220   27.9620   41.5660 O.2       1 CRO        -0.5345
     11 CA2        27.1970   28.2450   39.5120 C.2       1 CRO         0.0267
     12 CA3        23.9190   26.7210   39.8420 C.3       1 CRO        -0.0500
     13 C3         23.7450   25.3260   40.3600 C.2       1 CRO         0.9240
     14 O3         22.8850   25.1160   41.1930 O.co2     1 CRO        -0.8115
     15 CB2        28.3290   28.8220   39.9600 C.2       1 CRO        -0.0640
     16 CG2        29.4370   29.3700   39.1240 C.ar      1 CRO        -0.0706
     17 CD1        29.5410   29.1030   37.7420 C.ar      1 CRO        -0.0730
     18 CD2        30.4870   30.1100   39.8050 C.ar      1 CRO        -0.0730
     19 CE1        30.7070   29.5460   37.0330 C.ar      1 CRO        -0.1944
     20 CE2        31.6140   30.5630   39.0850 C.ar      1 CRO        -0.1944
     21 CZ         31.7180   30.3000   37.7210 C.ar      1 CRO         0.1129
     22 OH         32.8940   30.8040   36.9710 O.3       1 CRO        -0.5075
     23 OXT        24.5350   24.3830   39.8490 O.co2     1 CRO        -0.8115
     24 HN11       23.4249   27.8210   37.4406 H         1 CRO         0.3576
     25 H2         24.6449   28.3826   36.2478 H         1 CRO         0.3576
     26 HA1        24.4866   25.5705   37.4120 H         1 CRO         0.0965
     27 HB1        26.6760   25.3089   36.2875 H         1 CRO         0.0458
     28 HG11       24.5725   24.5672   35.1702 H         1 CRO         0.0552
     29 HG12       25.8526   25.0780   34.0181 H         1 CRO         0.0552
     30 HG13       24.4726   26.1727   34.3707 H         1 CRO         0.0552
     31 HOG1       27.3108   27.7017   36.1559 H         1 CRO         0.4069
     32 HA31       23.5211   27.3840   40.6244 H         1 CRO         0.0342
     33 HA32       23.2851   26.7901   38.9456 H         1 CRO         0.0342
     34 HB2        28.5035   28.9243   41.0412 H         1 CRO         0.1473
     35 HD1        28.7540   28.5730   37.2260 H         1 CRO         0.1449
     36 HD2        30.4050   30.3130   40.8620 H         1 CRO         0.1449
     37 HE1        30.8240   29.3130   35.9850 H         1 CRO         0.1333
     38 HE2        32.3940   31.1120   39.5910 H         1 CRO         0.1333
     39 HOH        32.9869   30.6025   35.8936 H         1 CRO         0.4126
@<TRIPOS>BOND
     1    1    2 1
     2    1   24 1
     3    1   25 1
     4    2    6 1
     5    2   26 1
     6    2    3 1
     7    3   27 1
     8    3    4 1
     9    3    5 1
    10    4   28 1
    11    4   29 1
    12    4   30 1
    13    5   31 1
    14    6    8 1
    15    6    7 2
    16    7   11 1
    17    8   12 1
    18    8    9 am
    19    9   10 2
    20    9   11 1
    21   11   15 2
    22   12   13 1
    23   12   32 1
    24   12   33 1
    25   13   14 2
    26   13   23 1
    27   15   34 1
    28   15   16 1
    29   16   18 ar
    30   16   17 ar
    31   17   35 1
    32   17   19 ar
    33   18   36 1
    34   18   20 ar
    35   19   21 ar
    36   19   37 1
    37   20   38 1
    38   20   21 ar
    39   21   22 1
    40   22   39 1
@<TRIPOS>SUBSTRUCTURE
     1 CRO         1 GROUP   0 A     ****
