@<TRIPOS>MOLECULE
FBP
   30    30     1     0     0
SMALL
USER_CHARGES

@<TRIPOS>ATOM
      1 P1         99.9250   23.1470   35.7990 P.3       1 FBP         1.3257
      2 O1P       100.0690   22.4910   34.4160 O.2       1 FBP        -0.9423
      3 O2P        99.1640   22.3390   36.7360 O.3       1 FBP        -0.9423
      4 O3P        99.4360   24.5170   35.4750 O.3       1 FBP        -0.9423
      5 O1        101.3300   23.2340   36.3570 O.3       1 FBP        -0.5668
      6 C1        102.3720   23.6190   35.4330 C.3       1 FBP         0.2055
      7 C2        103.6020   23.7610   36.2710 C.3       1 FBP         0.3170
      8 O2        103.2760   24.7310   37.2010 O.3       1 FBP        -0.6353
      9 C3        104.8600   24.2290   35.4850 C.3       1 FBP         0.1067
     10 O3        104.6410   25.5610   34.9560 O.3       1 FBP        -0.5929
     11 C4        105.9270   24.0420   36.5900 C.3       1 FBP         0.0887
     12 O4        107.3080   24.1880   36.1650 O.3       1 FBP        -0.6681
     13 C5        105.5020   22.6270   37.1840 C.3       1 FBP         0.1061
     14 O5        104.0240   22.5260   36.9400 O.3       1 FBP        -0.4157
     15 C6        105.7810   22.5680   38.6760 C.3       1 FBP         0.1729
     16 O6        105.4150   21.2960   39.3900 O.3       1 FBP        -0.5977
     17 P2        106.2130   20.0060   39.4580 P.3       1 FBP         1.3203
     18 O4P       107.4480   20.2700   38.6570 O.2       1 FBP        -0.9451
     19 O5P       105.2020   19.0560   38.8780 O.3       1 FBP        -0.9451
     20 O6P       106.5820   19.6210   40.8370 O.3       1 FBP        -0.9451
     21 H11       102.4908   22.8376   34.6680 H         1 FBP         0.0136
     22 H12       102.1000   24.5683   34.9483 H         1 FBP         0.0136
     23 HO2       102.9379   25.7227   36.8659 H         1 FBP         0.4396
     24 H3        105.1463   23.7563   34.5339 H         1 FBP         0.0356
     25 HO3       103.8890   25.7238   34.1699 H         1 FBP         0.3736
     26 H4        106.0121   24.8714   37.3075 H         1 FBP         0.0665
     27 HO4       107.6567   25.1439   35.7470 H         1 FBP         0.4581
     28 H5        106.0298   21.7711   36.7380 H         1 FBP         0.0275
     29 H61       106.8577   22.7069   38.8534 H         1 FBP         0.0339
     30 H62       105.2196   23.3648   39.1858 H         1 FBP         0.0339
@<TRIPOS>BOND
     1    1    2 2
     2    1    3 1
     3    1    4 1
     4    1    5 1
     5    5    6 1
     6    6    7 1
     7    6   21 1
     8    6   22 1
     9    7    8 1
    10    7    9 1
    11    7   14 1
    12    8   23 1
    13    9   10 1
    14    9   11 1
    15    9   24 1
    16   10   25 1
    17   11   12 1
    18   11   13 1
    19   11   26 1
    20   12   27 1
    21   13   14 1
    22   13   15 1
    23   13   28 1
    24   15   16 1
    25   15   29 1
    26   15   30 1
    27   16   17 1
    28   17   18 2
    29   17   19 1
    30   17   20 1
@<TRIPOS>SUBSTRUCTURE
     1 FBP         1 GROUP   0 A     ****
@<TRIPOS>MOLECULE
[2,3,4-trihydroxy-5-[[hydroxy(oxido)phosphoryl]oxymethyl]tetrahydrofuran-2-yl]methyl phosphate
   31    31     1     0     0
SMALL
USER_CHARGES

@<TRIPOS>ATOM
      1 P1         99.9250   23.1470   35.7990 P.3       1 FBP         1.3171
      2 O1P       100.0690   22.4910   34.4160 O.2       1 FBP        -0.9329
      3 O2P        99.1640   22.3390   36.7360 O.3       1 FBP        -0.9329
      4 O3P        99.4360   24.5170   35.4750 O.3       1 FBP        -0.9329
      5 O1        101.3300   23.2340   36.3570 O.3       1 FBP        -0.5614
      6 C1        102.3720   23.6190   35.4330 C.3       1 FBP         0.2188
      7 C2        103.6020   23.7610   36.2710 C.3       1 FBP         0.3188
      8 O2        103.2760   24.7310   37.2010 O.3       1 FBP        -0.6364
      9 C3        104.8600   24.2290   35.4850 C.3       1 FBP         0.1186
     10 O3        104.6410   25.5610   34.9560 O.3       1 FBP        -0.5699
     11 C4        105.9270   24.0420   36.5900 C.3       1 FBP         0.0779
     12 O4        107.3080   24.1880   36.1650 O.3       1 FBP        -0.6432
     13 C5        105.5020   22.6270   37.1840 C.3       1 FBP         0.1155
     14 O5        104.0240   22.5260   36.9400 O.3       1 FBP        -0.4145
     15 C6        105.7810   22.5680   38.6760 C.3       1 FBP         0.1577
     16 O6        105.4150   21.2960   39.3900 O.3       1 FBP        -0.6032
     17 P2        106.2130   20.0060   39.4580 P.3       1 FBP         1.4273
     18 O4P       107.4480   20.2700   38.6570 O.2       1 FBP        -0.8474
     19 O5P       105.2020   19.0560   38.8780 O.3       1 FBP        -0.8474
     20 O6P       106.5820   19.6210   40.8370 O.3       1 FBP        -0.7796
     21 H11       102.4908   22.8376   34.6680 H         1 FBP         0.0197
     22 H12       102.1000   24.5683   34.9483 H         1 FBP         0.0197
     23 HO2       102.9379   25.7227   36.8659 H         1 FBP         0.4553
     24 H3        105.1463   23.7563   34.5339 H         1 FBP         0.0422
     25 HO3       103.8890   25.7238   34.1699 H         1 FBP         0.3755
     26 H4        106.0121   24.8714   37.3075 H         1 FBP         0.0617
     27 HO4       107.6567   25.1439   35.7470 H         1 FBP         0.4277
     28 H5        106.0298   21.7711   36.7380 H         1 FBP         0.0364
     29 H61       106.8577   22.7069   38.8534 H         1 FBP         0.0488
     30 H62       105.2196   23.3648   39.1858 H         1 FBP         0.0488
     31 HOP6      107.3140   20.2204   41.3981 H         1 FBP         0.4145
@<TRIPOS>BOND
     1    1    2 2
     2    1    3 1
     3    1    4 1
     4    1    5 1
     5    5    6 1
     6    6    7 1
     7    6   21 1
     8    6   22 1
     9    7    8 1
    10    7    9 1
    11    7   14 1
    12    8   23 1
    13    9   10 1
    14    9   11 1
    15    9   24 1
    16   10   25 1
    17   11   12 1
    18   11   13 1
    19   11   26 1
    20   12   27 1
    21   13   14 1
    22   13   15 1
    23   13   28 1
    24   15   16 1
    25   15   29 1
    26   15   30 1
    27   16   17 1
    28   17   18 2
    29   17   19 1
    30   17   20 1
    31   20   31 1
@<TRIPOS>SUBSTRUCTURE
     1 FBP         1 GROUP   0 A     ****
@<TRIPOS>MOLECULE
[3,4,5-trihydroxy-5-[[hydroxy(oxido)phosphoryl]oxymethyl]tetrahydrofuran-2-yl]methyl phosphate
   31    31     1     0     0
SMALL
USER_CHARGES

@<TRIPOS>ATOM
      1 P1         99.9250   23.1470   35.7990 P.3       1 FBP         1.4304
      2 O1P       100.0690   22.4910   34.4160 O.2       1 FBP        -0.8437
      3 O2P        99.1640   22.3390   36.7360 O.3       1 FBP        -0.8437
      4 O3P        99.4360   24.5170   35.4750 O.3       1 FBP        -0.7730
      5 O1        101.3300   23.2340   36.3570 O.3       1 FBP        -0.5911
      6 C1        102.3720   23.6190   35.4330 C.3       1 FBP         0.1998
      7 C2        103.6020   23.7610   36.2710 C.3       1 FBP         0.3055
      8 O2        103.2760   24.7310   37.2010 O.3       1 FBP        -0.6186
      9 C3        104.8600   24.2290   35.4850 C.3       1 FBP         0.0614
     10 O3        104.6410   25.5610   34.9560 O.3       1 FBP        -0.6174
     11 C4        105.9270   24.0420   36.5900 C.3       1 FBP         0.1122
     12 O4        107.3080   24.1880   36.1650 O.3       1 FBP        -0.5690
     13 C5        105.5020   22.6270   37.1840 C.3       1 FBP         0.0960
     14 O5        104.0240   22.5260   36.9400 O.3       1 FBP        -0.4398
     15 C6        105.7810   22.5680   38.6760 C.3       1 FBP         0.2543
     16 O6        105.4150   21.2960   39.3900 O.3       1 FBP        -0.5507
     17 P2        106.2130   20.0060   39.4580 P.3       1 FBP         1.3154
     18 O4P       107.4480   20.2700   38.6570 O.2       1 FBP        -0.9360
     19 O5P       105.2020   19.0560   38.8780 O.3       1 FBP        -0.9360
     20 O6P       106.5820   19.6210   40.8370 O.3       1 FBP        -0.9360
     21 HOP3       98.4285   24.6566   35.0561 H         1 FBP         0.4151
     22 H11       102.4908   22.8376   34.6680 H         1 FBP         0.0356
     23 H12       102.1000   24.5683   34.9483 H         1 FBP         0.0356
     24 HO2       102.9379   25.7227   36.8659 H         1 FBP         0.4088
     25 H3        105.1463   23.7563   34.5339 H         1 FBP         0.0661
     26 HO3       103.8890   25.7238   34.1699 H         1 FBP         0.4201
     27 H4        106.0121   24.8714   37.3075 H         1 FBP         0.0467
     28 HO4       107.6567   25.1439   35.7470 H         1 FBP         0.3783
     29 H5        106.0298   21.7711   36.7380 H         1 FBP         0.0961
     30 H61       106.8577   22.7069   38.8534 H         1 FBP        -0.0113
     31 H62       105.2196   23.3648   39.1858 H         1 FBP        -0.0113
@<TRIPOS>BOND
     1    1    2 2
     2    1    3 1
     3    1    4 1
     4    1    5 1
     5    4   21 1
     6    5    6 1
     7    6    7 1
     8    6   22 1
     9    6   23 1
    10    7    8 1
    11    7    9 1
    12    7   14 1
    13    8   24 1
    14    9   10 1
    15    9   11 1
    16    9   25 1
    17   10   26 1
    18   11   12 1
    19   11   13 1
    20   11   27 1
    21   12   28 1
    22   13   14 1
    23   13   15 1
    24   13   29 1
    25   15   16 1
    26   15   30 1
    27   15   31 1
    28   16   17 1
    29   17   18 2
    30   17   19 1
    31   17   20 1
@<TRIPOS>SUBSTRUCTURE
     1 FBP         1 GROUP   0 A     ****
@<TRIPOS>MOLECULE
[2,3,4-trihydroxy-5-[[hydroxy(oxido)phosphoryl]oxymethyl]tetrahydrofuran-2-yl]methyl hydrogen phosphate
   32    32     1     0     0
SMALL
USER_CHARGES

@<TRIPOS>ATOM
      1 P1         99.9250   23.1470   35.7990 P.3       1 FBP         1.4375
      2 O1P       100.0690   22.4910   34.4160 O.2       1 FBP        -0.8380
      3 O2P        99.1640   22.3390   36.7360 O.3       1 FBP        -0.8380
      4 O3P        99.4360   24.5170   35.4750 O.3       1 FBP        -0.7822
      5 O1        101.3300   23.2340   36.3570 O.3       1 FBP        -0.5634
      6 C1        102.3720   23.6190   35.4330 C.3       1 FBP         0.1730
      7 C2        103.6020   23.7610   36.2710 C.3       1 FBP         0.3390
      8 O2        103.2760   24.7310   37.2010 O.3       1 FBP        -0.6070
      9 C3        104.8600   24.2290   35.4850 C.3       1 FBP         0.1249
     10 O3        104.6410   25.5610   34.9560 O.3       1 FBP        -0.5734
     11 C4        105.9270   24.0420   36.5900 C.3       1 FBP         0.0899
     12 O4        107.3080   24.1880   36.1650 O.3       1 FBP        -0.6338
     13 C5        105.5020   22.6270   37.1840 C.3       1 FBP         0.1120
     14 O5        104.0240   22.5260   36.9400 O.3       1 FBP        -0.4307
     15 C6        105.7810   22.5680   38.6760 C.3       1 FBP         0.1587
     16 O6        105.4150   21.2960   39.3900 O.3       1 FBP        -0.5940
     17 P2        106.2130   20.0060   39.4580 P.3       1 FBP         1.4124
     18 O4P       107.4480   20.2700   38.6570 O.2       1 FBP        -0.8337
     19 O5P       105.2020   19.0560   38.8780 O.3       1 FBP        -0.8337
     20 O6P       106.5820   19.6210   40.8370 O.3       1 FBP        -0.7844
     21 HOP3       98.4285   24.6566   35.0561 H         1 FBP         0.4163
     22 H11       102.4908   22.8376   34.6680 H         1 FBP         0.0352
     23 H12       102.1000   24.5683   34.9483 H         1 FBP         0.0352
     24 HO2       102.9379   25.7227   36.8659 H         1 FBP         0.4387
     25 H3        105.1463   23.7563   34.5339 H         1 FBP         0.0463
     26 HO3       103.8890   25.7238   34.1699 H         1 FBP         0.3958
     27 H4        106.0121   24.8714   37.3075 H         1 FBP         0.0744
     28 HO4       107.6567   25.1439   35.7470 H         1 FBP         0.4415
     29 H5        106.0298   21.7711   36.7380 H         1 FBP         0.0516
     30 H61       106.8577   22.7069   38.8534 H         1 FBP         0.0525
     31 H62       105.2196   23.3648   39.1858 H         1 FBP         0.0525
     32 HOP6      107.3140   20.2204   41.3981 H         1 FBP         0.4248
@<TRIPOS>BOND
     1    1    2 2
     2    1    3 1
     3    1    4 1
     4    1    5 1
     5    4   21 1
     6    5    6 1
     7    6    7 1
     8    6   22 1
     9    6   23 1
    10    7    8 1
    11    7    9 1
    12    7   14 1
    13    8   24 1
    14    9   10 1
    15    9   11 1
    16    9   25 1
    17   10   26 1
    18   11   12 1
    19   11   13 1
    20   11   27 1
    21   12   28 1
    22   13   14 1
    23   13   15 1
    24   13   29 1
    25   15   16 1
    26   15   30 1
    27   15   31 1
    28   16   17 1
    29   17   18 2
    30   17   19 1
    31   17   20 1
    32   20   32 1
@<TRIPOS>SUBSTRUCTURE
     1 FBP         1 GROUP   0 A     ****
