@<TRIPOS>MOLECULE
FMN
   50    52     1     0     0
SMALL
USER_CHARGES

@<TRIPOS>ATOM
      1 N1         33.8640    7.2250   13.5830 N.ar      1 FMN        -0.6988
      2 C2         33.0310    6.3190   13.0620 C.ar      1 FMN         0.8536
      3 O2         33.1850    5.1330   13.2150 O.2       1 FMN        -0.6019
      4 N3         31.9740    6.7210   12.1760 N.am      1 FMN        -0.6223
      5 C4         31.7880    8.0070   11.8260 C.ar      1 FMN         0.6334
      6 O4         30.8990    8.3580   11.0370 O.2       1 FMN        -0.6125
      7 C4A        32.7360    8.9900   12.3570 C.ar      1 FMN         0.2211
      8 N5         32.5590   10.2790   12.1300 N.ar      1 FMN        -0.4286
      9 C5A        33.3450   11.1860   12.7220 C.ar      1 FMN         0.0170
     10 C6         33.1220   12.6070   12.4870 C.ar      1 FMN        -0.0553
     11 C7         33.8140   13.5180   13.2260 C.ar      1 FMN        -0.1211
     12 C7M        33.4890   15.0180   13.1220 C.3       1 FMN        -0.0435
     13 C8         34.8930   13.1170   14.0900 C.ar      1 FMN        -0.0173
     14 C8M        35.8120   14.1150   14.7780 C.3       1 FMN        -0.0630
     15 C9         35.1530   11.7920   14.2730 C.ar      1 FMN        -0.1390
     16 C9A        34.3820   10.8090   13.6740 C.ar      1 FMN         0.1887
     17 N10        34.5570    9.4340   13.8830 N.pl3     1 FMN        -0.5294
     18 C10        33.7860    8.4950   13.2630 C.ar      1 FMN         0.6151
     19 C1'        35.5540    8.9250   14.8610 C.3       1 FMN         0.1741
     20 C2'        34.7890    8.5870   16.1570 C.3       1 FMN         0.1411
     21 O2'        34.4170    9.8290   16.7940 O.3       1 FMN        -0.6334
     22 C3'        35.6810    7.8210   17.1500 C.3       1 FMN         0.1067
     23 O3'        36.8490    8.6620   17.4880 O.3       1 FMN        -0.6301
     24 C4'        36.2120    6.5180   16.5910 C.3       1 FMN         0.0813
     25 O4'        35.1490    5.8040   15.9090 O.3       1 FMN        -0.6796
     26 C5'        36.7120    5.6340   17.7210 C.3       1 FMN         0.1813
     27 O5'        35.6040    5.2520   18.5790 O.3       1 FMN        -0.5642
     28 P          35.8370    4.6280   20.0380 P.3       1 FMN         1.3127
     29 O1P        36.5850    5.6920   20.8020 O.2       1 FMN        -0.9243
     30 O2P        36.6820    3.3640   19.8470 O.3       1 FMN        -0.9243
     31 O3P        34.4360    4.3060   20.5540 O.3       1 FMN        -0.9243
     32 HN3        31.2870    5.9681   11.7621 H         1 FMN         0.3334
     33 H6         32.4170   12.9330   11.7370 H         1 FMN         0.1447
     34 HM71       32.6472   15.1636   12.4290 H         1 FMN         0.0392
     35 HM72       34.3704   15.5590   12.7471 H         1 FMN         0.0392
     36 HM73       33.2170   15.4040   14.1155 H         1 FMN         0.0392
     37 HM81       35.4840   15.1382   14.5425 H         1 FMN         0.0535
     38 HM82       36.8429   13.9694   14.4228 H         1 FMN         0.0535
     39 HM83       35.7736   13.9590   15.8662 H         1 FMN         0.0535
     40 H9         35.9820   11.5000   14.9010 H         1 FMN         0.1971
     41 H1'1       36.0416    8.0270   14.4538 H         1 FMN         0.1123
     42 H1'2       36.3115    9.7000   15.0494 H         1 FMN         0.1123
     43 H2'        33.8814    8.0121   15.9211 H         1 FMN         0.0570
     44 HO2'       33.7730   10.5471   16.2651 H         1 FMN         0.4322
     45 H3'        35.0849    7.5964   18.0468 H         1 FMN         0.0570
     46 HO3'       36.6996    9.6649   17.9144 H         1 FMN         0.4323
     47 H4'        37.0059    6.7321   15.8603 H         1 FMN         0.0270
     48 HO4'       34.6399    6.2650   15.0497 H         1 FMN         0.4672
     49 H5'1       37.1740    4.7283   17.3011 H         1 FMN         0.0181
     50 H5'2       37.4570    6.1840   18.3147 H         1 FMN         0.0181
@<TRIPOS>BOND
     1    1    2 ar
     2    1   18 ar
     3    2    3 2
     4    2    4 ar
     5    4    5 ar
     6    4   32 1
     7    5    6 2
     8    5    7 ar
     9    7    8 ar
    10    7   18 1
    11    8    9 ar
    12    9   10 ar
    13    9   16 ar
    14   10   11 ar
    15   10   33 1
    16   11   12 1
    17   11   13 ar
    18   12   34 1
    19   12   35 1
    20   12   36 1
    21   13   14 1
    22   13   15 ar
    23   14   37 1
    24   14   38 1
    25   14   39 1
    26   15   16 ar
    27   15   40 1
    28   16   17 ar
    29   17   18 ar
    30   17   19 1
    31   19   20 1
    32   19   41 1
    33   19   42 1
    34   20   21 1
    35   20   22 1
    36   20   43 1
    37   21   44 1
    38   22   23 1
    39   22   24 1
    40   22   45 1
    41   23   46 1
    42   24   25 1
    43   24   26 1
    44   24   47 1
    45   25   48 1
    46   26   27 1
    47   26   49 1
    48   26   50 1
    49   27   28 1
    50   28   29 2
    51   28   30 1
    52   28   31 1
@<TRIPOS>SUBSTRUCTURE
     1 FMN         1 GROUP   0 A     ****
@<TRIPOS>MOLECULE
[5-(7,8-dimethyl-2,4-dioxo-benzo[g]pteridin-10-yl)-2,3,4-trihydroxy-pentyl] hydrogen phosphate
   51    53     1     0     0
SMALL
USER_CHARGES

@<TRIPOS>ATOM
      1 N1         33.8640    7.2250   13.5830 N.ar      1 FMN        -0.7188
      2 C2         33.0310    6.3190   13.0620 C.ar      1 FMN         0.8564
      3 O2         33.1850    5.1330   13.2150 O.2       1 FMN        -0.5960
      4 N3         31.9740    6.7210   12.1760 N.am      1 FMN        -0.6203
      5 C4         31.7880    8.0070   11.8260 C.ar      1 FMN         0.6324
      6 O4         30.8990    8.3580   11.0370 O.2       1 FMN        -0.5909
      7 C4A        32.7360    8.9900   12.3570 C.ar      1 FMN         0.2268
      8 N5         32.5590   10.2790   12.1300 N.ar      1 FMN        -0.4213
      9 C5A        33.3450   11.1860   12.7220 C.ar      1 FMN         0.0237
     10 C6         33.1220   12.6070   12.4870 C.ar      1 FMN        -0.0497
     11 C7         33.8140   13.5180   13.2260 C.ar      1 FMN        -0.1120
     12 C7M        33.4890   15.0180   13.1220 C.3       1 FMN        -0.0492
     13 C8         34.8930   13.1170   14.0900 C.ar      1 FMN        -0.0085
     14 C8M        35.8120   14.1150   14.7780 C.3       1 FMN        -0.0652
     15 C9         35.1530   11.7920   14.2730 C.ar      1 FMN        -0.1548
     16 C9A        34.3820   10.8090   13.6740 C.ar      1 FMN         0.1814
     17 N10        34.5570    9.4340   13.8830 N.pl3     1 FMN        -0.5490
     18 C10        33.7860    8.4950   13.2630 C.ar      1 FMN         0.6205
     19 C1'        35.5540    8.9250   14.8610 C.3       1 FMN         0.2004
     20 C2'        34.7890    8.5870   16.1570 C.3       1 FMN         0.1106
     21 O2'        34.4170    9.8290   16.7940 O.3       1 FMN        -0.6127
     22 C3'        35.6810    7.8210   17.1500 C.3       1 FMN         0.1043
     23 O3'        36.8490    8.6620   17.4880 O.3       1 FMN        -0.5954
     24 C4'        36.2120    6.5180   16.5910 C.3       1 FMN         0.1470
     25 O4'        35.1490    5.8040   15.9090 O.3       1 FMN        -0.6416
     26 C5'        36.7120    5.6340   17.7210 C.3       1 FMN         0.1489
     27 O5'        35.6040    5.2520   18.5790 O.3       1 FMN        -0.5765
     28 P          35.8370    4.6280   20.0380 P.3       1 FMN         1.4297
     29 O1P        36.5850    5.6920   20.8020 O.2       1 FMN        -0.8316
     30 O2P        36.6820    3.3640   19.8470 O.3       1 FMN        -0.8316
     31 O3P        34.4360    4.3060   20.5540 O.3       1 FMN        -0.7868
     32 HN3        31.2870    5.9681   11.7621 H         1 FMN         0.3407
     33 H6         32.4170   12.9330   11.7370 H         1 FMN         0.1538
     34 HM71       32.6472   15.1636   12.4290 H         1 FMN         0.0448
     35 HM72       34.3704   15.5590   12.7471 H         1 FMN         0.0448
     36 HM73       33.2170   15.4040   14.1155 H         1 FMN         0.0448
     37 HM81       35.4840   15.1382   14.5425 H         1 FMN         0.0553
     38 HM82       36.8429   13.9694   14.4228 H         1 FMN         0.0553
     39 HM83       35.7736   13.9590   15.8662 H         1 FMN         0.0553
     40 H9         35.9820   11.5000   14.9010 H         1 FMN         0.1836
     41 H1'1       36.0416    8.0270   14.4538 H         1 FMN         0.1052
     42 H1'2       36.3115    9.7000   15.0494 H         1 FMN         0.1052
     43 H2'        33.8814    8.0121   15.9211 H         1 FMN         0.0379
     44 HO2'       33.7730   10.5471   16.2651 H         1 FMN         0.4241
     45 H3'        35.0849    7.5964   18.0468 H         1 FMN         0.0657
     46 HO3'       36.6996    9.6649   17.9144 H         1 FMN         0.4023
     47 H4'        37.0059    6.7321   15.8603 H         1 FMN         0.0474
     48 HO4'       34.6399    6.2650   15.0497 H         1 FMN         0.4469
     49 H5'1       37.1740    4.7283   17.3011 H         1 FMN         0.0451
     50 H5'2       37.4570    6.1840   18.3147 H         1 FMN         0.0451
     51 HOP3       33.7175    5.1183   20.7380 H         1 FMN         0.4269
@<TRIPOS>BOND
     1    1    2 ar
     2    1   18 ar
     3    2    3 2
     4    2    4 ar
     5    4    5 ar
     6    4   32 1
     7    5    6 2
     8    5    7 ar
     9    7    8 ar
    10    7   18 1
    11    8    9 ar
    12    9   10 ar
    13    9   16 ar
    14   10   11 ar
    15   10   33 1
    16   11   12 1
    17   11   13 ar
    18   12   34 1
    19   12   35 1
    20   12   36 1
    21   13   14 1
    22   13   15 ar
    23   14   37 1
    24   14   38 1
    25   14   39 1
    26   15   16 ar
    27   15   40 1
    28   16   17 ar
    29   17   18 ar
    30   17   19 1
    31   19   20 1
    32   19   41 1
    33   19   42 1
    34   20   21 1
    35   20   22 1
    36   20   43 1
    37   21   44 1
    38   22   23 1
    39   22   24 1
    40   22   45 1
    41   23   46 1
    42   24   25 1
    43   24   26 1
    44   24   47 1
    45   25   48 1
    46   26   27 1
    47   26   49 1
    48   26   50 1
    49   27   28 1
    50   28   29 2
    51   28   30 1
    52   28   31 1
    53   31   51 1
@<TRIPOS>SUBSTRUCTURE
     1 FMN         1 GROUP   0 A     ****
@<TRIPOS>MOLECULE
[5-(7,8-dimethyl-2-oxido-4-oxo-benzo[g]pteridin-10-yl)-2,3,4-trihydroxy-pentyl] phosphate
   49    51     1     0     0
SMALL
USER_CHARGES

@<TRIPOS>ATOM
      1 N1         33.8640    7.2250   13.5830 N.ar      1 FMN        -0.8034
      2 C2         33.0310    6.3190   13.0620 C.ar      1 FMN         1.1305
      3 O2         33.1850    5.1330   13.2150 O.3       1 FMN        -0.7049
      4 N3         31.9740    6.7210   12.1760 N.ar      1 FMN        -0.8745
      5 C4         31.7880    8.0070   11.8260 C.ar      1 FMN         0.6640
      6 O4         30.8990    8.3580   11.0370 O.2       1 FMN        -0.7028
      7 C4A        32.7360    8.9900   12.3570 C.ar      1 FMN         0.2400
      8 N5         32.5590   10.2790   12.1300 N.ar      1 FMN        -0.5008
      9 C5A        33.3450   11.1860   12.7220 C.ar      1 FMN         0.0308
     10 C6         33.1220   12.6070   12.4870 C.ar      1 FMN        -0.0680
     11 C7         33.8140   13.5180   13.2260 C.ar      1 FMN        -0.1557
     12 C7M        33.4890   15.0180   13.1220 C.3       1 FMN        -0.0254
     13 C8         34.8930   13.1170   14.0900 C.ar      1 FMN        -0.0476
     14 C8M        35.8120   14.1150   14.7780 C.3       1 FMN        -0.0485
     15 C9         35.1530   11.7920   14.2730 C.ar      1 FMN        -0.1579
     16 C9A        34.3820   10.8090   13.6740 C.ar      1 FMN         0.1895
     17 N10        34.5570    9.4340   13.8830 N.pl3     1 FMN        -0.5896
     18 C10        33.7860    8.4950   13.2630 C.ar      1 FMN         0.5557
     19 C1'        35.5540    8.9250   14.8610 C.3       1 FMN         0.2037
     20 C2'        34.7890    8.5870   16.1570 C.3       1 FMN         0.1091
     21 O2'        34.4170    9.8290   16.7940 O.3       1 FMN        -0.6227
     22 C3'        35.6810    7.8210   17.1500 C.3       1 FMN         0.1037
     23 O3'        36.8490    8.6620   17.4880 O.3       1 FMN        -0.5982
     24 C4'        36.2120    6.5180   16.5910 C.3       1 FMN         0.1247
     25 O4'        35.1490    5.8040   15.9090 O.3       1 FMN        -0.6644
     26 C5'        36.7120    5.6340   17.7210 C.3       1 FMN         0.1772
     27 O5'        35.6040    5.2520   18.5790 O.3       1 FMN        -0.5761
     28 P          35.8370    4.6280   20.0380 P.3       1 FMN         1.3154
     29 O1P        36.5850    5.6920   20.8020 O.2       1 FMN        -0.9340
     30 O2P        36.6820    3.3640   19.8470 O.3       1 FMN        -0.9340
     31 O3P        34.4360    4.3060   20.5540 O.3       1 FMN        -0.9340
     32 H6         32.4170   12.9330   11.7370 H         1 FMN         0.1288
     33 HM71       32.6472   15.1636   12.4290 H         1 FMN         0.0218
     34 HM72       34.3704   15.5590   12.7471 H         1 FMN         0.0218
     35 HM73       33.2170   15.4040   14.1155 H         1 FMN         0.0218
     36 HM81       35.4840   15.1382   14.5425 H         1 FMN         0.0371
     37 HM82       36.8429   13.9694   14.4228 H         1 FMN         0.0371
     38 HM83       35.7736   13.9590   15.8662 H         1 FMN         0.0371
     39 H9         35.9820   11.5000   14.9010 H         1 FMN         0.1779
     40 H1'1       36.0416    8.0270   14.4538 H         1 FMN         0.0926
     41 H1'2       36.3115    9.7000   15.0494 H         1 FMN         0.0926
     42 H2'        33.8814    8.0121   15.9211 H         1 FMN         0.0345
     43 HO2'       33.7730   10.5471   16.2651 H         1 FMN         0.4161
     44 H3'        35.0849    7.5964   18.0468 H         1 FMN         0.0606
     45 HO3'       36.6996    9.6649   17.9144 H         1 FMN         0.3893
     46 H4'        37.0059    6.7321   15.8603 H         1 FMN         0.0248
     47 HO4'       34.6399    6.2650   15.0497 H         1 FMN         0.4530
     48 H5'1       37.1740    4.7283   17.3011 H         1 FMN         0.0257
     49 H5'2       37.4570    6.1840   18.3147 H         1 FMN         0.0257
@<TRIPOS>BOND
     1    1    2 ar
     2    1   18 ar
     3    2    3 1
     4    2    4 ar
     5    4    5 ar
     6    5    6 2
     7    5    7 ar
     8    7    8 ar
     9    7   18 1
    10    8    9 ar
    11    9   10 ar
    12    9   16 ar
    13   10   11 ar
    14   10   32 1
    15   11   12 1
    16   11   13 ar
    17   12   33 1
    18   12   34 1
    19   12   35 1
    20   13   14 1
    21   13   15 ar
    22   14   36 1
    23   14   37 1
    24   14   38 1
    25   15   16 ar
    26   15   39 1
    27   16   17 ar
    28   17   18 ar
    29   17   19 1
    30   19   20 1
    31   19   40 1
    32   19   41 1
    33   20   21 1
    34   20   22 1
    35   20   42 1
    36   21   43 1
    37   22   23 1
    38   22   24 1
    39   22   44 1
    40   23   45 1
    41   24   25 1
    42   24   26 1
    43   24   46 1
    44   25   47 1
    45   26   27 1
    46   26   48 1
    47   26   49 1
    48   27   28 1
    49   28   29 2
    50   28   30 1
    51   28   31 1
@<TRIPOS>SUBSTRUCTURE
     1 FMN         1 GROUP   0 A     ****
@<TRIPOS>MOLECULE
[5-(7,8-dimethyl-2-oxido-4-oxo-benzo[g]pteridin-10-yl)-2,3,4-trihydroxy-pentyl] hydrogen phosphate
   50    52     1     0     0
SMALL
USER_CHARGES

@<TRIPOS>ATOM
      1 N1         33.8640    7.2250   13.5830 N.ar      1 FMN        -0.8130
      2 C2         33.0310    6.3190   13.0620 C.ar      1 FMN         1.1316
      3 O2         33.1850    5.1330   13.2150 O.3       1 FMN        -0.7036
      4 N3         31.9740    6.7210   12.1760 N.ar      1 FMN        -0.8638
      5 C4         31.7880    8.0070   11.8260 C.ar      1 FMN         0.6652
      6 O4         30.8990    8.3580   11.0370 O.2       1 FMN        -0.6827
      7 C4A        32.7360    8.9900   12.3570 C.ar      1 FMN         0.2452
      8 N5         32.5590   10.2790   12.1300 N.ar      1 FMN        -0.4971
      9 C5A        33.3450   11.1860   12.7220 C.ar      1 FMN         0.0424
     10 C6         33.1220   12.6070   12.4870 C.ar      1 FMN        -0.0654
     11 C7         33.8140   13.5180   13.2260 C.ar      1 FMN        -0.1449
     12 C7M        33.4890   15.0180   13.1220 C.3       1 FMN        -0.0315
     13 C8         34.8930   13.1170   14.0900 C.ar      1 FMN        -0.0468
     14 C8M        35.8120   14.1150   14.7780 C.3       1 FMN        -0.0480
     15 C9         35.1530   11.7920   14.2730 C.ar      1 FMN        -0.1669
     16 C9A        34.3820   10.8090   13.6740 C.ar      1 FMN         0.1810
     17 N10        34.5570    9.4340   13.8830 N.pl3     1 FMN        -0.6022
     18 C10        33.7860    8.4950   13.2630 C.ar      1 FMN         0.5548
     19 C1'        35.5540    8.9250   14.8610 C.3       1 FMN         0.2168
     20 C2'        34.7890    8.5870   16.1570 C.3       1 FMN         0.1045
     21 O2'        34.4170    9.8290   16.7940 O.3       1 FMN        -0.6031
     22 C3'        35.6810    7.8210   17.1500 C.3       1 FMN         0.1032
     23 O3'        36.8490    8.6620   17.4880 O.3       1 FMN        -0.6110
     24 C4'        36.2120    6.5180   16.5910 C.3       1 FMN         0.1502
     25 O4'        35.1490    5.8040   15.9090 O.3       1 FMN        -0.6269
     26 C5'        36.7120    5.6340   17.7210 C.3       1 FMN         0.1492
     27 O5'        35.6040    5.2520   18.5790 O.3       1 FMN        -0.5830
     28 P          35.8370    4.6280   20.0380 P.3       1 FMN         1.4332
     29 O1P        36.5850    5.6920   20.8020 O.2       1 FMN        -0.8378
     30 O2P        36.6820    3.3640   19.8470 O.3       1 FMN        -0.8378
     31 O3P        34.4360    4.3060   20.5540 O.3       1 FMN        -0.7893
     32 H6         32.4170   12.9330   11.7370 H         1 FMN         0.1379
     33 HM71       32.6472   15.1636   12.4290 H         1 FMN         0.0276
     34 HM72       34.3704   15.5590   12.7471 H         1 FMN         0.0276
     35 HM73       33.2170   15.4040   14.1155 H         1 FMN         0.0276
     36 HM81       35.4840   15.1382   14.5425 H         1 FMN         0.0370
     37 HM82       36.8429   13.9694   14.4228 H         1 FMN         0.0370
     38 HM83       35.7736   13.9590   15.8662 H         1 FMN         0.0370
     39 H9         35.9820   11.5000   14.9010 H         1 FMN         0.1635
     40 H1'1       36.0416    8.0270   14.4538 H         1 FMN         0.0890
     41 H1'2       36.3115    9.7000   15.0494 H         1 FMN         0.0890
     42 H2'        33.8814    8.0121   15.9211 H         1 FMN         0.0430
     43 HO2'       33.7730   10.5471   16.2651 H         1 FMN         0.4044
     44 H3'        35.0849    7.5964   18.0468 H         1 FMN         0.0660
     45 HO3'       36.6996    9.6649   17.9144 H         1 FMN         0.4027
     46 H4'        37.0059    6.7321   15.8603 H         1 FMN         0.0444
     47 HO4'       34.6399    6.2650   15.0497 H         1 FMN         0.4346
     48 H5'1       37.1740    4.7283   17.3011 H         1 FMN         0.0417
     49 H5'2       37.4570    6.1840   18.3147 H         1 FMN         0.0417
     50 HOP3       33.7175    5.1183   20.7380 H         1 FMN         0.4256
@<TRIPOS>BOND
     1    1    2 ar
     2    1   18 ar
     3    2    3 1
     4    2    4 ar
     5    4    5 ar
     6    5    6 2
     7    5    7 ar
     8    7    8 ar
     9    7   18 1
    10    8    9 ar
    11    9   10 ar
    12    9   16 ar
    13   10   11 ar
    14   10   32 1
    15   11   12 1
    16   11   13 ar
    17   12   33 1
    18   12   34 1
    19   12   35 1
    20   13   14 1
    21   13   15 ar
    22   14   36 1
    23   14   37 1
    24   14   38 1
    25   15   16 ar
    26   15   39 1
    27   16   17 ar
    28   17   18 ar
    29   17   19 1
    30   19   20 1
    31   19   40 1
    32   19   41 1
    33   20   21 1
    34   20   22 1
    35   20   42 1
    36   21   43 1
    37   22   23 1
    38   22   24 1
    39   22   44 1
    40   23   45 1
    41   24   25 1
    42   24   26 1
    43   24   46 1
    44   25   47 1
    45   26   27 1
    46   26   48 1
    47   26   49 1
    48   27   28 1
    49   28   29 2
    50   28   30 1
    51   28   31 1
    52   31   50 1
@<TRIPOS>SUBSTRUCTURE
     1 FMN         1 GROUP   0 A     ****
