@<TRIPOS>MOLECULE
FMT
    4     3     1     0     0
SMALL
USER_CHARGES

@<TRIPOS>ATOM
      1 C           0.7670   33.9240   -2.2790 C.2       1 FMT         0.9050
      2 O1          2.2180   33.1820   -2.0700 O.co2     1 FMT        -0.8778
      3 O2          0.2680   34.8030   -1.1950 O.co2     1 FMT        -0.8778
      4 H           0.1946   33.7619   -3.2042 H         1 FMT        -0.1493
@<TRIPOS>BOND
     1    1    2 2
     2    1    3 1
     3    1    4 1
@<TRIPOS>SUBSTRUCTURE
     1 FMT         1 GROUP   0 A     ****
@<TRIPOS>MOLECULE
formic acid
    5     4     1     0     0
SMALL
USER_CHARGES

@<TRIPOS>ATOM
      1 C           0.7670   33.9240   -2.2790 C.2       1 FMT         0.6183
      2 O1          2.2180   33.1820   -2.0700 O.2       1 FMT        -0.4826
      3 O2          0.2680   34.8030   -1.1950 O.3       1 FMT        -0.5921
      4 H           0.1946   33.7619   -3.2042 H         1 FMT         0.0322
      5 HO2        -0.6997   35.3146   -1.3033 H         1 FMT         0.4241
@<TRIPOS>BOND
     1    1    2 2
     2    1    3 1
     3    1    4 1
     4    3    5 1
@<TRIPOS>SUBSTRUCTURE
     1 FMT         1 GROUP   0 A     ****
