@<TRIPOS>MOLECULE
GAL
   24    24     1     0     0
SMALL
USER_CHARGES

@<TRIPOS>ATOM
      1 C1          4.9170   90.5790   82.8250 C.3       1 GAL         0.3478
      2 C2          4.2660   91.8260   82.1310 C.3       1 GAL         0.1271
      3 C3          4.6880   91.9320   80.6800 C.3       1 GAL         0.0609
      4 C4          6.2370   91.7980   80.5450 C.3       1 GAL         0.0873
      5 C5          6.7410   90.5120   81.1390 C.3       1 GAL         0.1528
      6 C6          8.2680   90.5980   81.0590 C.3       1 GAL         0.1408
      7 O1          5.1620   90.1270   84.1860 O.3       1 GAL        -0.5807
      8 O2          2.8340   91.8650   82.2210 O.3       1 GAL        -0.5844
      9 O3          4.1520   93.1230   80.0950 O.3       1 GAL        -0.6046
     10 O4          6.9190   92.8280   81.2250 O.3       1 GAL        -0.5865
     11 O5          6.3480   90.4460   82.5310 O.3       1 GAL        -0.4285
     12 O6          9.0200   89.4100   81.1290 O.3       1 GAL        -0.5956
     13 H1          4.0333   90.0083   82.5034 H         1 GAL         0.0520
     14 H2          4.5613   92.7325   82.6797 H         1 GAL         0.0818
     15 H3          4.2018   91.1497   80.0787 H         1 GAL         0.0632
     16 H4          6.5105   91.8899   79.4835 H         1 GAL         0.0430
     17 H5          6.3127   89.6241   80.6509 H         1 GAL         0.0526
     18 H61         8.5599   91.0548   80.1019 H         1 GAL         0.0449
     19 H62         8.6446   91.2138   81.8891 H         1 GAL         0.0449
     20 HO1         4.3261   90.0410   84.8959 H         1 GAL         0.4284
     21 HO2         2.3427   91.7999   83.2030 H         1 GAL         0.4175
     22 HO3         3.0698   93.3162   80.1344 H         1 GAL         0.4115
     23 HO4         6.7229   93.8797   80.9692 H         1 GAL         0.4201
     24 HO6        10.1179   89.4499   81.0734 H         1 GAL         0.4036
@<TRIPOS>BOND
     1    1    2 1
     2    1    7 1
     3    1   11 1
     4    1   13 1
     5    2    3 1
     6    2    8 1
     7    2   14 1
     8    3    4 1
     9    3    9 1
    10    3   15 1
    11    4    5 1
    12    4   10 1
    13    4   16 1
    14    5    6 1
    15    5   11 1
    16    5   17 1
    17    6   12 1
    18    6   18 1
    19    6   19 1
    20    7   20 1
    21    8   21 1
    22    9   22 1
    23   10   23 1
    24   12   24 1
@<TRIPOS>SUBSTRUCTURE
     1 GAL         1 GROUP   0 A     ****
@<TRIPOS>MOLECULE
2,4,5-trihydroxy-6-(hydroxymethyl)tetrahydropyran-3-olate
   23    23     1     0     0
SMALL
USER_CHARGES

@<TRIPOS>ATOM
      1 C1          4.9170   90.5790   82.8250 C.3       1 GAL         0.2662
      2 C2          4.2660   91.8260   82.1310 C.3       1 GAL         0.3939
      3 C3          4.6880   91.9320   80.6800 C.3       1 GAL         0.0165
      4 C4          6.2370   91.7980   80.5450 C.3       1 GAL         0.1311
      5 C5          6.7410   90.5120   81.1390 C.3       1 GAL         0.1184
      6 C6          8.2680   90.5980   81.0590 C.3       1 GAL         0.1347
      7 O1          5.1620   90.1270   84.1860 O.3       1 GAL        -0.5731
      8 O2          2.8340   91.8650   82.2210 O.3       1 GAL        -0.8513
      9 O3          4.1520   93.1230   80.0950 O.3       1 GAL        -0.6423
     10 O4          6.9190   92.8280   81.2250 O.3       1 GAL        -0.6190
     11 O5          6.3480   90.4460   82.5310 O.3       1 GAL        -0.4979
     12 O6          9.0200   89.4100   81.1290 O.3       1 GAL        -0.6235
     13 H1          4.0333   90.0083   82.5034 H         1 GAL         0.0031
     14 H2          4.5613   92.7325   82.6797 H         1 GAL        -0.0632
     15 H3          4.2018   91.1497   80.0787 H         1 GAL         0.0236
     16 H4          6.5105   91.8899   79.4835 H         1 GAL         0.0284
     17 H5          6.3127   89.6241   80.6509 H         1 GAL         0.0292
     18 H61         8.5599   91.0548   80.1019 H         1 GAL         0.0524
     19 H62         8.6446   91.2138   81.8891 H         1 GAL         0.0524
     20 HO1         4.3261   90.0410   84.8959 H         1 GAL         0.3704
     21 HO3         3.0698   93.3162   80.1344 H         1 GAL         0.4280
     22 HO4         6.7229   93.8797   80.9692 H         1 GAL         0.4215
     23 HO6        10.1179   89.4499   81.0734 H         1 GAL         0.4002
@<TRIPOS>BOND
     1    1    2 1
     2    1    7 1
     3    1   11 1
     4    1   13 1
     5    2    3 1
     6    2    8 1
     7    2   14 1
     8    3    4 1
     9    3    9 1
    10    3   15 1
    11    4    5 1
    12    4   10 1
    13    4   16 1
    14    5    6 1
    15    5   11 1
    16    5   17 1
    17    6   12 1
    18    6   18 1
    19    6   19 1
    20    7   20 1
    21    9   21 1
    22   10   22 1
    23   12   23 1
@<TRIPOS>SUBSTRUCTURE
     1 GAL         1 GROUP   0 A     ****
@<TRIPOS>MOLECULE
3,4,5-trihydroxy-6-(hydroxymethyl)tetrahydropyran-2-olate
   23    23     1     0     0
SMALL
USER_CHARGES

@<TRIPOS>ATOM
      1 C1          4.9170   90.5790   82.8250 C.3       1 GAL         0.5454
      2 C2          4.2660   91.8260   82.1310 C.3       1 GAL         0.0426
      3 C3          4.6880   91.9320   80.6800 C.3       1 GAL         0.1160
      4 C4          6.2370   91.7980   80.5450 C.3       1 GAL         0.0854
      5 C5          6.7410   90.5120   81.1390 C.3       1 GAL         0.1083
      6 C6          8.2680   90.5980   81.0590 C.3       1 GAL         0.1391
      7 O1          5.1620   90.1270   84.1860 O.3       1 GAL        -0.8120
      8 O2          2.8340   91.8650   82.2210 O.3       1 GAL        -0.6253
      9 O3          4.1520   93.1230   80.0950 O.3       1 GAL        -0.6033
     10 O4          6.9190   92.8280   81.2250 O.3       1 GAL        -0.6220
     11 O5          6.3480   90.4460   82.5310 O.3       1 GAL        -0.5124
     12 O6          9.0200   89.4100   81.1290 O.3       1 GAL        -0.6282
     13 H1          4.0333   90.0083   82.5034 H         1 GAL        -0.0750
     14 H2          4.5613   92.7325   82.6797 H         1 GAL         0.0352
     15 H3          4.2018   91.1497   80.0787 H         1 GAL         0.0365
     16 H4          6.5105   91.8899   79.4835 H         1 GAL         0.0388
     17 H5          6.3127   89.6241   80.6509 H         1 GAL         0.0241
     18 H61         8.5599   91.0548   80.1019 H         1 GAL         0.0376
     19 H62         8.6446   91.2138   81.8891 H         1 GAL         0.0376
     20 HO2         2.3427   91.7999   83.2030 H         1 GAL         0.4140
     21 HO3         3.0698   93.3162   80.1344 H         1 GAL         0.3829
     22 HO4         6.7229   93.8797   80.9692 H         1 GAL         0.4197
     23 HO6        10.1179   89.4499   81.0734 H         1 GAL         0.4148
@<TRIPOS>BOND
     1    1    2 1
     2    1    7 1
     3    1   11 1
     4    1   13 1
     5    2    3 1
     6    2    8 1
     7    2   14 1
     8    3    4 1
     9    3    9 1
    10    3   15 1
    11    4    5 1
    12    4   10 1
    13    4   16 1
    14    5    6 1
    15    5   11 1
    16    5   17 1
    17    6   12 1
    18    6   18 1
    19    6   19 1
    20    8   20 1
    21    9   21 1
    22   10   22 1
    23   12   23 1
@<TRIPOS>SUBSTRUCTURE
     1 GAL         1 GROUP   0 A     ****
@<TRIPOS>MOLECULE
4,5,6-trihydroxy-2-(hydroxymethyl)tetrahydropyran-3-olate
   23    23     1     0     0
SMALL
USER_CHARGES

@<TRIPOS>ATOM
      1 C1          4.9170   90.5790   82.8250 C.3       1 GAL         0.3555
      2 C2          4.2660   91.8260   82.1310 C.3       1 GAL         0.0755
      3 C3          4.6880   91.9320   80.6800 C.3       1 GAL         0.0340
      4 C4          6.2370   91.7980   80.5450 C.3       1 GAL         0.3817
      5 C5          6.7410   90.5120   81.1390 C.3       1 GAL         0.0787
      6 C6          8.2680   90.5980   81.0590 C.3       1 GAL         0.1447
      7 O1          5.1620   90.1270   84.1860 O.3       1 GAL        -0.6124
      8 O2          2.8340   91.8650   82.2210 O.3       1 GAL        -0.6230
      9 O3          4.1520   93.1230   80.0950 O.3       1 GAL        -0.6512
     10 O4          6.9190   92.8280   81.2250 O.3       1 GAL        -0.8617
     11 O5          6.3480   90.4460   82.5310 O.3       1 GAL        -0.4517
     12 O6          9.0200   89.4100   81.1290 O.3       1 GAL        -0.6256
     13 H1          4.0333   90.0083   82.5034 H         1 GAL         0.0581
     14 H2          4.5613   92.7325   82.6797 H         1 GAL         0.0529
     15 H3          4.2018   91.1497   80.0787 H         1 GAL         0.0198
     16 H4          6.5105   91.8899   79.4835 H         1 GAL        -0.0877
     17 H5          6.3127   89.6241   80.6509 H         1 GAL         0.0166
     18 H61         8.5599   91.0548   80.1019 H         1 GAL         0.0400
     19 H62         8.6446   91.2138   81.8891 H         1 GAL         0.0400
     20 HO1         4.3261   90.0410   84.8959 H         1 GAL         0.4067
     21 HO2         2.3427   91.7999   83.2030 H         1 GAL         0.4046
     22 HO3         3.0698   93.3162   80.1344 H         1 GAL         0.4314
     23 HO6        10.1179   89.4499   81.0734 H         1 GAL         0.3733
@<TRIPOS>BOND
     1    1    2 1
     2    1    7 1
     3    1   11 1
     4    1   13 1
     5    2    3 1
     6    2    8 1
     7    2   14 1
     8    3    4 1
     9    3    9 1
    10    3   15 1
    11    4    5 1
    12    4   10 1
    13    4   16 1
    14    5    6 1
    15    5   11 1
    16    5   17 1
    17    6   12 1
    18    6   18 1
    19    6   19 1
    20    7   20 1
    21    8   21 1
    22    9   22 1
    23   12   23 1
@<TRIPOS>SUBSTRUCTURE
     1 GAL         1 GROUP   0 A     ****
@<TRIPOS>MOLECULE
2,3,5-trihydroxy-6-(hydroxymethyl)tetrahydropyran-4-olate
   23    23     1     0     0
SMALL
USER_CHARGES

@<TRIPOS>ATOM
      1 C1          4.9170   90.5790   82.8250 C.3       1 GAL         0.3492
      2 C2          4.2660   91.8260   82.1310 C.3       1 GAL         0.0504
      3 C3          4.6880   91.9320   80.6800 C.3       1 GAL         0.3554
      4 C4          6.2370   91.7980   80.5450 C.3       1 GAL         0.0511
      5 C5          6.7410   90.5120   81.1390 C.3       1 GAL         0.1545
      6 C6          8.2680   90.5980   81.0590 C.3       1 GAL         0.1300
      7 O1          5.1620   90.1270   84.1860 O.3       1 GAL        -0.6018
      8 O2          2.8340   91.8650   82.2210 O.3       1 GAL        -0.6290
      9 O3          4.1520   93.1230   80.0950 O.3       1 GAL        -0.8778
     10 O4          6.9190   92.8280   81.2250 O.3       1 GAL        -0.6393
     11 O5          6.3480   90.4460   82.5310 O.3       1 GAL        -0.4719
     12 O6          9.0200   89.4100   81.1290 O.3       1 GAL        -0.6166
     13 H1          4.0333   90.0083   82.5034 H         1 GAL         0.0173
     14 H2          4.5613   92.7325   82.6797 H         1 GAL         0.0435
     15 H3          4.2018   91.1497   80.0787 H         1 GAL        -0.0776
     16 H4          6.5105   91.8899   79.4835 H         1 GAL         0.0189
     17 H5          6.3127   89.6241   80.6509 H         1 GAL         0.0413
     18 H61         8.5599   91.0548   80.1019 H         1 GAL         0.0392
     19 H62         8.6446   91.2138   81.8891 H         1 GAL         0.0392
     20 HO1         4.3261   90.0410   84.8959 H         1 GAL         0.3925
     21 HO2         2.3427   91.7999   83.2030 H         1 GAL         0.4196
     22 HO4         6.7229   93.8797   80.9692 H         1 GAL         0.4321
     23 HO6        10.1179   89.4499   81.0734 H         1 GAL         0.3798
@<TRIPOS>BOND
     1    1    2 1
     2    1    7 1
     3    1   11 1
     4    1   13 1
     5    2    3 1
     6    2    8 1
     7    2   14 1
     8    3    4 1
     9    3    9 1
    10    3   15 1
    11    4    5 1
    12    4   10 1
    13    4   16 1
    14    5    6 1
    15    5   11 1
    16    5   17 1
    17    6   12 1
    18    6   18 1
    19    6   19 1
    20    7   20 1
    21    8   21 1
    22   10   22 1
    23   12   23 1
@<TRIPOS>SUBSTRUCTURE
     1 GAL         1 GROUP   0 A     ****
