@<TRIPOS>MOLECULE
ACP
   46    48     1     0     0
SMALL
USER_CHARGES

@<TRIPOS>ATOM
      1 PG          0.8550   23.2630   12.2680 P.3       1 ACP         1.3841
      2 O1G         0.2610   24.0670   11.1550 O.2       1 ACP        -0.9006
      3 O2G         1.5460   24.2690   13.3220 O.3       1 ACP        -0.9006
      4 O3G        -0.1310   22.3590   12.9100 O.3       1 ACP        -0.8023
      5 PB          3.9600   22.9890   11.4430 P.3       1 ACP         1.5336
      6 O1B         4.3120   23.6160   12.7350 O.2       1 ACP        -0.9161
      7 O2B         3.9240   23.9590   10.3010 O.3       1 ACP        -0.9161
      8 C3B         2.2840   22.2700   11.6710 C.3       1 ACP        -0.5620
      9 PA          5.7430   20.7430   12.1060 P.3       1 ACP         1.6150
     10 O1A         4.8310   20.2740   13.1830 O.2       1 ACP        -0.8998
     11 O2A         7.0060   21.2900   12.6600 O.3       1 ACP        -0.8998
     12 O3A         5.0120   21.8360   11.1810 O.3       1 ACP        -0.8200
     13 O5'         6.0310   19.5600   11.0600 O.3       1 ACP        -0.5568
     14 C5'         4.9790   19.0950   10.1930 C.3       1 ACP         0.2326
     15 C4'         5.2560   17.6540    9.8080 C.3       1 ACP         0.1150
     16 O4'         6.3740   17.6320    8.8930 O.3       1 ACP        -0.3893
     17 C3'         5.6520   16.8010   11.0140 C.3       1 ACP         0.1209
     18 O3'         5.2040   15.4480   10.8610 O.3       1 ACP        -0.5313
     19 C2'         7.1700   16.9250   11.0340 C.3       1 ACP         0.0502
     20 O2'         7.8570   15.9360   11.8240 O.3       1 ACP        -0.5729
     21 C1'         7.4740   16.9460    9.5320 C.3       1 ACP         0.4020
     22 N9          8.7090   17.7200    9.2130 N.pl3     1 ACP        -0.6751
     23 C8          8.8950   19.0190    9.4210 C.ar      1 ACP         0.5826
     24 N7         10.1830   19.2940    9.1830 N.ar      1 ACP        -0.5895
     25 C5         10.7990   18.1770    8.8190 C.ar      1 ACP        -0.2012
     26 C6         12.1150   17.8560    8.4630 C.ar      1 ACP         0.7046
     27 N6         13.1040   18.7320    8.5870 N.pl3     1 ACP        -0.9335
     28 N1         12.3770   16.5790    8.1080 N.ar      1 ACP        -0.8066
     29 C2         11.4290   15.6450    8.1140 C.ar      1 ACP         0.6478
     30 N3         10.2040   15.9280    8.4830 N.ar      1 ACP        -0.7184
     31 C4          9.8490   17.1740    8.8270 C.ar      1 ACP         0.5572
     32 HOG3       -1.0601   22.7695   13.3322 H         1 ACP         0.4087
     33 H3B1        2.4713   21.4406   12.3689 H         1 ACP         0.0678
     34 H3B2        2.0583   21.8657   10.6732 H         1 ACP         0.0678
     35 H5'1        4.0151   19.1594   10.7190 H         1 ACP         0.0272
     36 H5'2        4.9458   19.7204    9.2887 H         1 ACP         0.0272
     37 H4'         4.3602   17.2441    9.3185 H         1 ACP         0.1247
     38 H3'         5.1723   17.0686   11.9670 H         1 ACP         0.0465
     39 HO3'        4.1272   15.2252   10.8317 H         1 ACP         0.3809
     40 H2'         7.5793   17.7731   11.6025 H         1 ACP         0.0333
     41 HO2'        7.6770   15.8755   12.9075 H         1 ACP         0.3932
     42 H1'         7.5941   15.9232    9.1453 H         1 ACP         0.0840
     43 H8          8.1200   19.7380    9.7340 H         1 ACP         0.1290
     44 HN61       12.8858   19.7706    8.8763 H         1 ACP         0.4125
     45 HN62       14.1421   18.4196    8.4005 H         1 ACP         0.4125
     46 H2         11.6640   14.6120    7.8060 H         1 ACP         0.0309
@<TRIPOS>BOND
     1    1    2 2
     2    1    3 1
     3    1    4 1
     4    1    8 1
     5    4   32 1
     6    5    6 2
     7    5    7 1
     8    5    8 1
     9    5   12 1
    10    8   33 1
    11    8   34 1
    12    9   10 2
    13    9   11 1
    14    9   12 1
    15    9   13 1
    16   13   14 1
    17   14   15 1
    18   14   35 1
    19   14   36 1
    20   15   16 1
    21   15   17 1
    22   15   37 1
    23   16   21 1
    24   17   18 1
    25   17   19 1
    26   17   38 1
    27   18   39 1
    28   19   20 1
    29   19   21 1
    30   19   40 1
    31   20   41 1
    32   21   22 1
    33   21   42 1
    34   22   23 ar
    35   22   31 ar
    36   23   24 ar
    37   23   43 1
    38   24   25 ar
    39   25   26 ar
    40   25   31 ar
    41   26   27 1
    42   26   28 ar
    43   27   44 1
    44   27   45 1
    45   28   29 ar
    46   29   30 ar
    47   29   46 1
    48   30   31 ar
@<TRIPOS>SUBSTRUCTURE
     1 ACP         1 GROUP   0 A     ****
@<TRIPOS>MOLECULE
[[5-(6-aminopurin-9-yl)-3,4-dihydroxy-tetrahydrofuran-2-yl]methoxy-oxido-phosphoryl]oxy-(phosphonatomethyl)phosphinate
   45    47     1     0     0
SMALL
USER_CHARGES

@<TRIPOS>ATOM
      1 PG          0.8550   23.2630   12.2680 P.3       1 ACP         1.1371
      2 O1G         0.2610   24.0670   11.1550 O.2       1 ACP        -0.8729
      3 O2G         1.5460   24.2690   13.3220 O.3       1 ACP        -0.8729
      4 O3G        -0.1310   22.3590   12.9100 O.3       1 ACP        -0.8729
      5 PB          3.9600   22.9890   11.4430 P.3       1 ACP         1.3530
      6 O1B         4.3120   23.6160   12.7350 O.2       1 ACP        -0.8769
      7 O2B         3.9240   23.9590   10.3010 O.3       1 ACP        -0.8769
      8 C3B         2.2840   22.2700   11.6710 C.3       1 ACP        -0.2917
      9 PA          5.7430   20.7430   12.1060 P.3       1 ACP         1.4515
     10 O1A         4.8310   20.2740   13.1830 O.2       1 ACP        -0.8638
     11 O2A         7.0060   21.2900   12.6600 O.3       1 ACP        -0.8638
     12 O3A         5.0120   21.8360   11.1810 O.3       1 ACP        -0.6999
     13 O5'         6.0310   19.5600   11.0600 O.3       1 ACP        -0.5471
     14 C5'         4.9790   19.0950   10.1930 C.3       1 ACP         0.2123
     15 C4'         5.2560   17.6540    9.8080 C.3       1 ACP         0.0901
     16 O4'         6.3740   17.6320    8.8930 O.3       1 ACP        -0.3685
     17 C3'         5.6520   16.8010   11.0140 C.3       1 ACP         0.0750
     18 O3'         5.2040   15.4480   10.8610 O.3       1 ACP        -0.6246
     19 C2'         7.1700   16.9250   11.0340 C.3       1 ACP         0.1174
     20 O2'         7.8570   15.9360   11.8240 O.3       1 ACP        -0.5933
     21 C1'         7.4740   16.9460    9.5320 C.3       1 ACP         0.4236
     22 N9          8.7090   17.7200    9.2130 N.pl3     1 ACP        -0.6836
     23 C8          8.8950   19.0190    9.4210 C.ar      1 ACP         0.5038
     24 N7         10.1830   19.2940    9.1830 N.ar      1 ACP        -0.6089
     25 C5         10.7990   18.1770    8.8190 C.ar      1 ACP        -0.2126
     26 C6         12.1150   17.8560    8.4630 C.ar      1 ACP         0.6444
     27 N6         13.1040   18.7320    8.5870 N.pl3     1 ACP        -1.0254
     28 N1         12.3770   16.5790    8.1080 N.ar      1 ACP        -0.8011
     29 C2         11.4290   15.6450    8.1140 C.ar      1 ACP         0.5537
     30 N3         10.2040   15.9280    8.4830 N.ar      1 ACP        -0.7575
     31 C4          9.8490   17.1740    8.8270 C.ar      1 ACP         0.5843
     32 H3B1        2.4713   21.4406   12.3689 H         1 ACP         0.0136
     33 H3B2        2.0583   21.8657   10.6732 H         1 ACP         0.0136
     34 H5'1        4.0151   19.1594   10.7190 H         1 ACP         0.0335
     35 H5'2        4.9458   19.7204    9.2887 H         1 ACP         0.0335
     36 H4'         4.3602   17.2441    9.3185 H         1 ACP         0.1078
     37 H3'         5.1723   17.0686   11.9670 H         1 ACP         0.0360
     38 HO3'        4.1272   15.2252   10.8317 H         1 ACP         0.4478
     39 H2'         7.5793   17.7731   11.6025 H         1 ACP         0.0362
     40 HO2'        7.6770   15.8755   12.9075 H         1 ACP         0.4122
     41 H1'         7.5941   15.9232    9.1453 H         1 ACP         0.0988
     42 H8          8.1200   19.7380    9.7340 H         1 ACP         0.0948
     43 HN61       12.8858   19.7706    8.8763 H         1 ACP         0.4197
     44 HN62       14.1421   18.4196    8.4005 H         1 ACP         0.4197
     45 H2         11.6640   14.6120    7.8060 H         1 ACP         0.0011
@<TRIPOS>BOND
     1    1    2 2
     2    1    3 1
     3    1    4 1
     4    1    8 1
     5    5    6 2
     6    5    7 1
     7    5    8 1
     8    5   12 1
     9    8   32 1
    10    8   33 1
    11    9   10 2
    12    9   11 1
    13    9   12 1
    14    9   13 1
    15   13   14 1
    16   14   15 1
    17   14   34 1
    18   14   35 1
    19   15   16 1
    20   15   17 1
    21   15   36 1
    22   16   21 1
    23   17   18 1
    24   17   19 1
    25   17   37 1
    26   18   38 1
    27   19   20 1
    28   19   21 1
    29   19   39 1
    30   20   40 1
    31   21   22 1
    32   21   41 1
    33   22   23 ar
    34   22   31 ar
    35   23   24 ar
    36   23   42 1
    37   24   25 ar
    38   25   26 ar
    39   25   31 ar
    40   26   27 1
    41   26   28 ar
    42   27   43 1
    43   27   44 1
    44   28   29 ar
    45   29   30 ar
    46   29   45 1
    47   30   31 ar
@<TRIPOS>SUBSTRUCTURE
     1 ACP         1 GROUP   0 A     ****
@<TRIPOS>MOLECULE
[[5-(6-aminopurin-9-yl)-3,4-dihydroxy-tetrahydrofuran-2-yl]methoxy-hydroxy-phosphoryl]oxy-(phosphonatomethyl)phosphinate
   46    48     1     0     0
SMALL
USER_CHARGES

@<TRIPOS>ATOM
      1 PG          0.8550   23.2630   12.2680 P.3       1 ACP         1.2047
      2 O1G         0.2610   24.0670   11.1550 O.2       1 ACP        -0.9111
      3 O2G         1.5460   24.2690   13.3220 O.3       1 ACP        -0.9111
      4 O3G        -0.1310   22.3590   12.9100 O.3       1 ACP        -0.9111
      5 PB          3.9600   22.9890   11.4430 P.3       1 ACP         1.6017
      6 O1B         4.3120   23.6160   12.7350 O.2       1 ACP        -0.9427
      7 O2B         3.9240   23.9590   10.3010 O.3       1 ACP        -0.9427
      8 C3B         2.2840   22.2700   11.6710 C.3       1 ACP        -0.6881
      9 PA          5.7430   20.7430   12.1060 P.3       1 ACP         1.7450
     10 O1A         4.8310   20.2740   13.1830 O.2       1 ACP        -0.8986
     11 O2A         7.0060   21.2900   12.6600 O.3       1 ACP        -0.8001
     12 O3A         5.0120   21.8360   11.1810 O.3       1 ACP        -0.7427
     13 O5'         6.0310   19.5600   11.0600 O.3       1 ACP        -0.5747
     14 C5'         4.9790   19.0950   10.1930 C.3       1 ACP         0.1906
     15 C4'         5.2560   17.6540    9.8080 C.3       1 ACP         0.0831
     16 O4'         6.3740   17.6320    8.8930 O.3       1 ACP        -0.4094
     17 C3'         5.6520   16.8010   11.0140 C.3       1 ACP         0.0765
     18 O3'         5.2040   15.4480   10.8610 O.3       1 ACP        -0.6012
     19 C2'         7.1700   16.9250   11.0340 C.3       1 ACP         0.0592
     20 O2'         7.8570   15.9360   11.8240 O.3       1 ACP        -0.6118
     21 C1'         7.4740   16.9460    9.5320 C.3       1 ACP         0.4235
     22 N9          8.7090   17.7200    9.2130 N.pl3     1 ACP        -0.6768
     23 C8          8.8950   19.0190    9.4210 C.ar      1 ACP         0.5820
     24 N7         10.1830   19.2940    9.1830 N.ar      1 ACP        -0.5746
     25 C5         10.7990   18.1770    8.8190 C.ar      1 ACP        -0.2007
     26 C6         12.1150   17.8560    8.4630 C.ar      1 ACP         0.7075
     27 N6         13.1040   18.7320    8.5870 N.pl3     1 ACP        -0.9380
     28 N1         12.3770   16.5790    8.1080 N.ar      1 ACP        -0.8083
     29 C2         11.4290   15.6450    8.1140 C.ar      1 ACP         0.6471
     30 N3         10.2040   15.9280    8.4830 N.ar      1 ACP        -0.7134
     31 C4          9.8490   17.1740    8.8270 C.ar      1 ACP         0.5789
     32 H3B1        2.4713   21.4406   12.3689 H         1 ACP         0.0792
     33 H3B2        2.0583   21.8657   10.6732 H         1 ACP         0.0792
     34 HOA2        6.9756   22.1095   13.3931 H         1 ACP         0.4343
     35 H5'1        4.0151   19.1594   10.7190 H         1 ACP         0.0733
     36 H5'2        4.9458   19.7204    9.2887 H         1 ACP         0.0733
     37 H4'         4.3602   17.2441    9.3185 H         1 ACP         0.1037
     38 H3'         5.1723   17.0686   11.9670 H         1 ACP         0.1414
     39 HO3'        4.1272   15.2252   10.8317 H         1 ACP         0.3924
     40 H2'         7.5793   17.7731   11.6025 H         1 ACP         0.0894
     41 HO2'        7.6770   15.8755   12.9075 H         1 ACP         0.4156
     42 H1'         7.5941   15.9232    9.1453 H         1 ACP         0.0899
     43 H8          8.1200   19.7380    9.7340 H         1 ACP         0.1294
     44 HN61       12.8858   19.7706    8.8763 H         1 ACP         0.4142
     45 HN62       14.1421   18.4196    8.4005 H         1 ACP         0.4142
     46 H2         11.6640   14.6120    7.8060 H         1 ACP         0.0276
@<TRIPOS>BOND
     1    1    2 2
     2    1    3 1
     3    1    4 1
     4    1    8 1
     5    5    6 2
     6    5    7 1
     7    5    8 1
     8    5   12 1
     9    8   32 1
    10    8   33 1
    11    9   10 2
    12    9   11 1
    13    9   12 1
    14    9   13 1
    15   11   34 1
    16   13   14 1
    17   14   15 1
    18   14   35 1
    19   14   36 1
    20   15   16 1
    21   15   17 1
    22   15   37 1
    23   16   21 1
    24   17   18 1
    25   17   19 1
    26   17   38 1
    27   18   39 1
    28   19   20 1
    29   19   21 1
    30   19   40 1
    31   20   41 1
    32   21   22 1
    33   21   42 1
    34   22   23 ar
    35   22   31 ar
    36   23   24 ar
    37   23   43 1
    38   24   25 ar
    39   25   26 ar
    40   25   31 ar
    41   26   27 1
    42   26   28 ar
    43   27   44 1
    44   27   45 1
    45   28   29 ar
    46   29   30 ar
    47   29   46 1
    48   30   31 ar
@<TRIPOS>SUBSTRUCTURE
     1 ACP         1 GROUP   0 A     ****
@<TRIPOS>MOLECULE
[[5-(6-aminopurin-9-yl)-3,4-dihydroxy-tetrahydrofuran-2-yl]methoxy-hydroxy-phosphoryl]oxy-[[hydroxy(oxido)phosphoryl]methyl]phosphinate
   47    49     1     0     0
SMALL
USER_CHARGES

@<TRIPOS>ATOM
      1 PG          0.8550   23.2630   12.2680 P.3       1 ACP         1.3716
      2 O1G         0.2610   24.0670   11.1550 O.2       1 ACP        -0.8819
      3 O2G         1.5460   24.2690   13.3220 O.3       1 ACP        -0.8819
      4 O3G        -0.1310   22.3590   12.9100 O.3       1 ACP        -0.7953
      5 PB          3.9600   22.9890   11.4430 P.3       1 ACP         1.5175
      6 O1B         4.3120   23.6160   12.7350 O.2       1 ACP        -0.8713
      7 O2B         3.9240   23.9590   10.3010 O.3       1 ACP        -0.8713
      8 C3B         2.2840   22.2700   11.6710 C.3       1 ACP        -0.5767
      9 PA          5.7430   20.7430   12.1060 P.3       1 ACP         1.7805
     10 O1A         4.8310   20.2740   13.1830 O.2       1 ACP        -0.8827
     11 O2A         7.0060   21.2900   12.6600 O.3       1 ACP        -0.7868
     12 O3A         5.0120   21.8360   11.1810 O.3       1 ACP        -0.7762
     13 O5'         6.0310   19.5600   11.0600 O.3       1 ACP        -0.5898
     14 C5'         4.9790   19.0950   10.1930 C.3       1 ACP         0.1870
     15 C4'         5.2560   17.6540    9.8080 C.3       1 ACP         0.1295
     16 O4'         6.3740   17.6320    8.8930 O.3       1 ACP        -0.4043
     17 C3'         5.6520   16.8010   11.0140 C.3       1 ACP         0.1377
     18 O3'         5.2040   15.4480   10.8610 O.3       1 ACP        -0.5393
     19 C2'         7.1700   16.9250   11.0340 C.3       1 ACP         0.0539
     20 O2'         7.8570   15.9360   11.8240 O.3       1 ACP        -0.5735
     21 C1'         7.4740   16.9460    9.5320 C.3       1 ACP         0.4056
     22 N9          8.7090   17.7200    9.2130 N.pl3     1 ACP        -0.6863
     23 C8          8.8950   19.0190    9.4210 C.ar      1 ACP         0.5639
     24 N7         10.1830   19.2940    9.1830 N.ar      1 ACP        -0.5717
     25 C5         10.7990   18.1770    8.8190 C.ar      1 ACP        -0.2103
     26 C6         12.1150   17.8560    8.4630 C.ar      1 ACP         0.7278
     27 N6         13.1040   18.7320    8.5870 N.pl3     1 ACP        -0.9426
     28 N1         12.3770   16.5790    8.1080 N.ar      1 ACP        -0.8009
     29 C2         11.4290   15.6450    8.1140 C.ar      1 ACP         0.6646
     30 N3         10.2040   15.9280    8.4830 N.ar      1 ACP        -0.7288
     31 C4          9.8490   17.1740    8.8270 C.ar      1 ACP         0.5655
     32 HOG3       -1.0601   22.7695   13.3322 H         1 ACP         0.4151
     33 H3B1        2.4713   21.4406   12.3689 H         1 ACP         0.0859
     34 H3B2        2.0583   21.8657   10.6732 H         1 ACP         0.0859
     35 HOA2        6.9756   22.1095   13.3931 H         1 ACP         0.4454
     36 H5'1        4.0151   19.1594   10.7190 H         1 ACP         0.0572
     37 H5'2        4.9458   19.7204    9.2887 H         1 ACP         0.0572
     38 H4'         4.3602   17.2441    9.3185 H         1 ACP         0.1215
     39 H3'         5.1723   17.0686   11.9670 H         1 ACP         0.0656
     40 HO3'        4.1272   15.2252   10.8317 H         1 ACP         0.3932
     41 H2'         7.5793   17.7731   11.6025 H         1 ACP         0.0459
     42 HO2'        7.6770   15.8755   12.9075 H         1 ACP         0.4019
     43 H1'         7.5941   15.9232    9.1453 H         1 ACP         0.0948
     44 H8          8.1200   19.7380    9.7340 H         1 ACP         0.1045
     45 HN61       12.8858   19.7706    8.8763 H         1 ACP         0.4265
     46 HN62       14.1421   18.4196    8.4005 H         1 ACP         0.4265
     47 H2         11.6640   14.6120    7.8060 H         1 ACP         0.0392
@<TRIPOS>BOND
     1    1    2 2
     2    1    3 1
     3    1    4 1
     4    1    8 1
     5    4   32 1
     6    5    6 2
     7    5    7 1
     8    5    8 1
     9    5   12 1
    10    8   33 1
    11    8   34 1
    12    9   10 2
    13    9   11 1
    14    9   12 1
    15    9   13 1
    16   11   35 1
    17   13   14 1
    18   14   15 1
    19   14   36 1
    20   14   37 1
    21   15   16 1
    22   15   17 1
    23   15   38 1
    24   16   21 1
    25   17   18 1
    26   17   19 1
    27   17   39 1
    28   18   40 1
    29   19   20 1
    30   19   21 1
    31   19   41 1
    32   20   42 1
    33   21   22 1
    34   21   43 1
    35   22   23 ar
    36   22   31 ar
    37   23   24 ar
    38   23   44 1
    39   24   25 ar
    40   25   26 ar
    41   25   31 ar
    42   26   27 1
    43   26   28 ar
    44   27   45 1
    45   27   46 1
    46   28   29 ar
    47   29   30 ar
    48   29   47 1
    49   30   31 ar
@<TRIPOS>SUBSTRUCTURE
     1 ACP         1 GROUP   0 A     ****
