@<TRIPOS>MOLECULE
COA
   80    82     1     0     0
SMALL
USER_CHARGES

@<TRIPOS>ATOM
      1 N1A        88.6040  -84.6940  -15.4010 N.ar      1 COA        -0.8194
      2 C2A        88.5170  -85.3620  -16.6140 C.ar      1 COA         0.6164
      3 N3A        88.4530  -84.8110  -17.8270 N.ar      1 COA        -0.6634
      4 C4A        88.4890  -83.4640  -17.7910 C.ar      1 COA         0.5616
      5 C5A        88.5780  -82.6230  -16.6440 C.ar      1 COA        -0.1957
      6 C6A        88.6370  -83.3150  -15.3450 C.ar      1 COA         0.6592
      7 N6A        88.7190  -82.6940  -14.2090 N.pl3     1 COA        -0.9209
      8 N7A        88.5930  -81.3110  -16.9840 N.ar      1 COA        -0.6212
      9 C8A        88.5140  -81.2930  -18.3130 C.ar      1 COA         0.5844
     10 N9A        88.4440  -82.5690  -18.8600 N.pl3     1 COA        -0.6339
     11 C1B        88.2830  -82.8930  -20.3050 C.3       1 COA         0.3820
     12 C2B        89.1690  -84.0030  -20.8100 C.3       1 COA         0.0894
     13 O2B        90.4930  -83.5370  -21.0680 O.3       1 COA        -0.6257
     14 C3B        88.4470  -84.3520  -22.1030 C.3       1 COA         0.1992
     15 O3B        88.5340  -83.3380  -23.0200 O.3       1 COA        -0.5566
     16 P3B        88.5670  -83.7630  -24.6320 P.3       1 COA         1.3104
     17 O7A        89.7760  -84.7730  -24.8120 O.2       1 COA        -0.9270
     18 O8A        88.8680  -82.4540  -25.4620 O.3       1 COA        -0.9270
     19 O9A        87.1870  -84.4450  -25.0050 O.3       1 COA        -0.9270
     20 C4B        86.9970  -84.4910  -21.5560 C.3       1 COA         0.0957
     21 O4B        86.9570  -83.4610  -20.4760 O.3       1 COA        -0.4377
     22 C5B        86.5780  -85.7930  -20.9340 C.3       1 COA         0.1723
     23 O5B        86.6630  -86.7650  -22.0150 O.3       1 COA        -0.5870
     24 P1A        85.5120  -87.8990  -22.1320 P.3       1 COA         1.5967
     25 O1A        85.9730  -88.8420  -23.2310 O.2       1 COA        -0.8874
     26 O2A        84.1350  -87.3250  -22.2760 O.3       1 COA        -0.8874
     27 O3A        85.5440  -88.6720  -20.8060 O.3       1 COA        -0.8200
     28 P2A        86.5260  -89.8380  -20.2320 P.3       1 COA         1.6132
     29 O4A        85.9410  -91.2220  -20.3870 O.2       1 COA        -0.9023
     30 O5A        87.9130  -89.7660  -20.8150 O.3       1 COA        -0.9023
     31 O6A        86.6310  -89.4110  -18.6740 O.3       1 COA        -0.5904
     32 CBP        85.9600  -88.6360  -16.5360 C.3       1 COA        -0.0952
     33 CCP        85.5210  -89.4080  -17.8120 C.3       1 COA         0.1929
     34 CDP        87.4920  -88.7900  -16.2100 C.3       1 COA        -0.0872
     35 CEP        85.6020  -87.2100  -16.9500 C.3       1 COA        -0.0872
     36 CAP        85.1850  -89.1370  -15.2540 C.3       1 COA         0.1119
     37 OAP        85.5020  -88.2660  -14.1280 O.3       1 COA        -0.6280
     38 C9P        83.6680  -89.1660  -15.4160 C.2       1 COA         0.6730
     39 O9P        83.0890  -90.0690  -16.2240 O.2       1 COA        -0.6346
     40 N8P        82.9960  -88.2770  -14.7190 N.am      1 COA        -0.5997
     41 C7P        81.5360  -88.1930  -14.7460 C.3       1 COA         0.1216
     42 C6P        81.0500  -88.2840  -13.2980 C.3       1 COA        -0.1831
     43 C5P        81.4830  -89.5720  -12.6330 C.2       1 COA         0.6682
     44 O5P        81.5080  -90.7220  -13.2480 O.2       1 COA        -0.6116
     45 N4P        81.8280  -89.4210  -11.3700 N.am      1 COA        -0.6044
     46 C3P        82.3050  -90.5540  -10.4610 C.3       1 COA         0.1026
     47 C2P        81.0660  -91.3020  -10.0080 C.3       1 COA        -0.0126
     48 S1P        81.4370  -92.6410   -8.8190 S.3       1 COA        -0.4287
     49 H2A        88.4990  -86.4230  -16.5720 H         1 COA         0.0210
     50 H61A       88.7598  -83.2668  -13.2708 H         1 COA         0.3850
     51 H62A       88.7477  -81.5947  -14.1840 H         1 COA         0.3850
     52 H8A        88.5050  -80.4030  -18.8910 H         1 COA         0.1359
     53 H1B        88.4770  -81.9515  -20.8397 H         1 COA         0.0887
     54 H2B        89.3598  -84.8274  -20.1072 H         1 COA         0.0540
     55 HO2A       91.1454  -83.2437  -20.2324 H         1 COA         0.4497
     56 H3B        88.8713  -85.1623  -22.7140 H         1 COA         0.0853
     57 H4B        86.2834  -84.3952  -22.3877 H         1 COA         0.1199
     58 H51A       87.2605  -86.0410  -20.1077 H         1 COA         0.0346
     59 H52A       85.5523  -85.7014  -20.5474 H         1 COA         0.0346
     60 H121       84.6753  -88.9064  -18.3050 H         1 COA         0.0511
     61 H122       85.2421  -90.4441  -17.5697 H         1 COA         0.0511
     62 H131       88.0860  -88.4540  -17.0727 H         1 COA         0.0365
     63 H132       87.7175  -89.8456  -15.9983 H         1 COA         0.0365
     64 H133       87.7432  -88.1780  -15.3311 H         1 COA         0.0365
     65 H141       86.1780  -86.9326  -17.8451 H         1 COA         0.0365
     66 H142       85.8437  -86.5184  -16.1295 H         1 COA         0.0365
     67 H143       84.5265  -87.1522  -17.1735 H         1 COA         0.0365
     68 H10        85.5087  -90.1600  -15.0118 H         1 COA         0.0722
     69 HO1        86.5501  -88.1036  -13.8363 H         1 COA         0.4666
     70 HN8        83.5757  -87.5785  -14.0977 H         1 COA         0.3260
     71 H71        81.2320  -87.2366  -15.1965 H         1 COA         0.0573
     72 H72        81.1319  -89.0242  -15.3425 H         1 COA         0.0573
     73 H61        81.4621  -87.4441  -12.7195 H         1 COA         0.0756
     74 H62        79.9511  -88.2397  -13.2766 H         1 COA         0.0756
     75 HN4        81.7547  -88.3956  -10.9785 H         1 COA         0.3100
     76 H31        82.9779  -91.2173  -11.0242 H         1 COA         0.0572
     77 H32        82.8431  -90.1313   -9.5998 H         1 COA         0.0572
     78 H21        80.3736  -90.6017   -9.5181 H         1 COA         0.0766
     79 H22        80.5724  -91.7559  -10.8800 H         1 COA         0.0766
     80 HS1        80.6217  -93.2588   -8.4145 H         1 COA         0.2312
@<TRIPOS>BOND
     1    1    2 ar
     2    1    6 ar
     3    2    3 ar
     4    2   49 1
     5    3    4 ar
     6    4    5 ar
     7    4   10 ar
     8    5    6 ar
     9    5    8 ar
    10    6    7 1
    11    7   50 1
    12    7   51 1
    13    8    9 ar
    14    9   10 ar
    15    9   52 1
    16   10   11 1
    17   11   12 1
    18   11   21 1
    19   11   53 1
    20   12   13 1
    21   12   14 1
    22   12   54 1
    23   13   55 1
    24   14   15 1
    25   14   20 1
    26   14   56 1
    27   15   16 1
    28   16   17 2
    29   16   18 1
    30   16   19 1
    31   20   21 1
    32   20   22 1
    33   20   57 1
    34   22   23 1
    35   22   58 1
    36   22   59 1
    37   23   24 1
    38   24   25 2
    39   24   26 1
    40   24   27 1
    41   27   28 1
    42   28   29 2
    43   28   30 1
    44   28   31 1
    45   31   33 1
    46   32   33 1
    47   32   34 1
    48   32   35 1
    49   32   36 1
    50   33   60 1
    51   33   61 1
    52   34   62 1
    53   34   63 1
    54   34   64 1
    55   35   65 1
    56   35   66 1
    57   35   67 1
    58   36   37 1
    59   36   38 1
    60   36   68 1
    61   37   69 1
    62   38   39 2
    63   38   40 am
    64   40   41 1
    65   40   70 1
    66   41   42 1
    67   41   71 1
    68   41   72 1
    69   42   43 1
    70   42   73 1
    71   42   74 1
    72   43   44 2
    73   43   45 am
    74   45   46 1
    75   45   75 1
    76   46   47 1
    77   46   76 1
    78   46   77 1
    79   47   48 1
    80   47   78 1
    81   47   79 1
    82   48   80 1
@<TRIPOS>SUBSTRUCTURE
     1 COA         1 GROUP   0 A     ****
@<TRIPOS>MOLECULE
[5-(6-aminopurin-9-yl)-4-hydroxy-2-[[[[3-hydroxy-2,2-dimethyl-4-oxo-4-[[3-oxo-3-(2-sulfanylethylamino)propyl]amino]butoxy]-oxido-phosphoryl]oxy-oxido-phosphoryl]oxymethyl]tetrahydrofuran-3-yl] hydrogen phosphate
   81    83     1     0     0
SMALL
USER_CHARGES

@<TRIPOS>ATOM
      1 N1A        88.6040  -84.6940  -15.4010 N.ar      1 COA        -0.8105
      2 C2A        88.5170  -85.3620  -16.6140 C.ar      1 COA         0.6362
      3 N3A        88.4530  -84.8110  -17.8270 N.ar      1 COA        -0.6919
      4 C4A        88.4890  -83.4640  -17.7910 C.ar      1 COA         0.5720
      5 C5A        88.5780  -82.6230  -16.6440 C.ar      1 COA        -0.1999
      6 C6A        88.6370  -83.3150  -15.3450 C.ar      1 COA         0.6853
      7 N6A        88.7190  -82.6940  -14.2090 N.pl3     1 COA        -0.9288
      8 N7A        88.5930  -81.3110  -16.9840 N.ar      1 COA        -0.5992
      9 C8A        88.5140  -81.2930  -18.3130 C.ar      1 COA         0.5868
     10 N9A        88.4440  -82.5690  -18.8600 N.pl3     1 COA        -0.6610
     11 C1B        88.2830  -82.8930  -20.3050 C.3       1 COA         0.3915
     12 C2B        89.1690  -84.0030  -20.8100 C.3       1 COA         0.0981
     13 O2B        90.4930  -83.5370  -21.0680 O.3       1 COA        -0.6053
     14 C3B        88.4470  -84.3520  -22.1030 C.3       1 COA         0.1441
     15 O3B        88.5340  -83.3380  -23.0200 O.3       1 COA        -0.5756
     16 P3B        88.5670  -83.7630  -24.6320 P.3       1 COA         1.4249
     17 O7A        89.7760  -84.7730  -24.8120 O.2       1 COA        -0.8270
     18 O8A        88.8680  -82.4540  -25.4620 O.3       1 COA        -0.8270
     19 O9A        87.1870  -84.4450  -25.0050 O.3       1 COA        -0.7946
     20 C4B        86.9970  -84.4910  -21.5560 C.3       1 COA         0.1099
     21 O4B        86.9570  -83.4610  -20.4760 O.3       1 COA        -0.4142
     22 C5B        86.5780  -85.7930  -20.9340 C.3       1 COA         0.1690
     23 O5B        86.6630  -86.7650  -22.0150 O.3       1 COA        -0.5767
     24 P1A        85.5120  -87.8990  -22.1320 P.3       1 COA         1.5942
     25 O1A        85.9730  -88.8420  -23.2310 O.2       1 COA        -0.8791
     26 O2A        84.1350  -87.3250  -22.2760 O.3       1 COA        -0.8791
     27 O3A        85.5440  -88.6720  -20.8060 O.3       1 COA        -0.8182
     28 P2A        86.5260  -89.8380  -20.2320 P.3       1 COA         1.5892
     29 O4A        85.9410  -91.2220  -20.3870 O.2       1 COA        -0.8759
     30 O5A        87.9130  -89.7660  -20.8150 O.3       1 COA        -0.8759
     31 O6A        86.6310  -89.4110  -18.6740 O.3       1 COA        -0.6071
     32 CBP        85.9600  -88.6360  -16.5360 C.3       1 COA        -0.0721
     33 CCP        85.5210  -89.4080  -17.8120 C.3       1 COA         0.1955
     34 CDP        87.4920  -88.7900  -16.2100 C.3       1 COA        -0.0851
     35 CEP        85.6020  -87.2100  -16.9500 C.3       1 COA        -0.0851
     36 CAP        85.1850  -89.1370  -15.2540 C.3       1 COA         0.0932
     37 OAP        85.5020  -88.2660  -14.1280 O.3       1 COA        -0.6201
     38 C9P        83.6680  -89.1660  -15.4160 C.2       1 COA         0.6400
     39 O9P        83.0890  -90.0690  -16.2240 O.2       1 COA        -0.7034
     40 N8P        82.9960  -88.2770  -14.7190 N.am      1 COA        -0.5470
     41 C7P        81.5360  -88.1930  -14.7460 C.3       1 COA         0.1138
     42 C6P        81.0500  -88.2840  -13.2980 C.3       1 COA        -0.1777
     43 C5P        81.4830  -89.5720  -12.6330 C.2       1 COA         0.6670
     44 O5P        81.5080  -90.7220  -13.2480 O.2       1 COA        -0.6046
     45 N4P        81.8280  -89.4210  -11.3700 N.am      1 COA        -0.6060
     46 C3P        82.3050  -90.5540  -10.4610 C.3       1 COA         0.1026
     47 C2P        81.0660  -91.3020  -10.0080 C.3       1 COA        -0.0096
     48 S1P        81.4370  -92.6410   -8.8190 S.3       1 COA        -0.4288
     49 H2A        88.4990  -86.4230  -16.5720 H         1 COA         0.0280
     50 H61A       88.7598  -83.2668  -13.2708 H         1 COA         0.4018
     51 H62A       88.7477  -81.5947  -14.1840 H         1 COA         0.4018
     52 H8A        88.5050  -80.4030  -18.8910 H         1 COA         0.1419
     53 H1B        88.4770  -81.9515  -20.8397 H         1 COA         0.0942
     54 H2B        89.3598  -84.8274  -20.1072 H         1 COA         0.0810
     55 HO2A       91.1454  -83.2437  -20.2324 H         1 COA         0.4311
     56 H3B        88.8713  -85.1623  -22.7140 H         1 COA         0.0988
     57 HOA9       86.8712  -85.3646  -24.4906 H         1 COA         0.4231
     58 H4B        86.2834  -84.3952  -22.3877 H         1 COA         0.1013
     59 H51A       87.2605  -86.0410  -20.1077 H         1 COA         0.0425
     60 H52A       85.5523  -85.7014  -20.5474 H         1 COA         0.0425
     61 H121       84.6753  -88.9064  -18.3050 H         1 COA         0.0323
     62 H122       85.2421  -90.4441  -17.5697 H         1 COA         0.0323
     63 H131       88.0860  -88.4540  -17.0727 H         1 COA         0.0378
     64 H132       87.7175  -89.8456  -15.9983 H         1 COA         0.0378
     65 H133       87.7432  -88.1780  -15.3311 H         1 COA         0.0378
     66 H141       86.1780  -86.9326  -17.8451 H         1 COA         0.0378
     67 H142       85.8437  -86.5184  -16.1295 H         1 COA         0.0378
     68 H143       84.5265  -87.1522  -17.1735 H         1 COA         0.0378
     69 H10        85.5087  -90.1600  -15.0118 H         1 COA         0.1071
     70 HO1        86.5501  -88.1036  -13.8363 H         1 COA         0.4031
     71 HN8        83.5757  -87.5785  -14.0977 H         1 COA         0.3862
     72 H71        81.2320  -87.2366  -15.1965 H         1 COA         0.0708
     73 H72        81.1319  -89.0242  -15.3425 H         1 COA         0.0708
     74 H61        81.4621  -87.4441  -12.7195 H         1 COA         0.0740
     75 H62        79.9511  -88.2397  -13.2766 H         1 COA         0.0740
     76 HN4        81.7547  -88.3956  -10.9785 H         1 COA         0.3080
     77 H31        82.9779  -91.2173  -11.0242 H         1 COA         0.0594
     78 H32        82.8431  -90.1313   -9.5998 H         1 COA         0.0594
     79 H21        80.3736  -90.6017   -9.5181 H         1 COA         0.0785
     80 H22        80.5724  -91.7559  -10.8800 H         1 COA         0.0785
     81 HS1        80.6217  -93.2588   -8.4145 H         1 COA         0.2237
@<TRIPOS>BOND
     1    1    2 ar
     2    1    6 ar
     3    2    3 ar
     4    2   49 1
     5    3    4 ar
     6    4    5 ar
     7    4   10 ar
     8    5    6 ar
     9    5    8 ar
    10    6    7 1
    11    7   50 1
    12    7   51 1
    13    8    9 ar
    14    9   10 ar
    15    9   52 1
    16   10   11 1
    17   11   12 1
    18   11   21 1
    19   11   53 1
    20   12   13 1
    21   12   14 1
    22   12   54 1
    23   13   55 1
    24   14   15 1
    25   14   20 1
    26   14   56 1
    27   15   16 1
    28   16   17 2
    29   16   18 1
    30   16   19 1
    31   19   57 1
    32   20   21 1
    33   20   22 1
    34   20   58 1
    35   22   23 1
    36   22   59 1
    37   22   60 1
    38   23   24 1
    39   24   25 2
    40   24   26 1
    41   24   27 1
    42   27   28 1
    43   28   29 2
    44   28   30 1
    45   28   31 1
    46   31   33 1
    47   32   33 1
    48   32   34 1
    49   32   35 1
    50   32   36 1
    51   33   61 1
    52   33   62 1
    53   34   63 1
    54   34   64 1
    55   34   65 1
    56   35   66 1
    57   35   67 1
    58   35   68 1
    59   36   37 1
    60   36   38 1
    61   36   69 1
    62   37   70 1
    63   38   39 2
    64   38   40 am
    65   40   41 1
    66   40   71 1
    67   41   42 1
    68   41   72 1
    69   41   73 1
    70   42   43 1
    71   42   74 1
    72   42   75 1
    73   43   44 2
    74   43   45 am
    75   45   46 1
    76   45   76 1
    77   46   47 1
    78   46   77 1
    79   46   78 1
    80   47   48 1
    81   47   79 1
    82   47   80 1
    83   48   81 1
@<TRIPOS>SUBSTRUCTURE
     1 COA         1 GROUP   0 A     ****
@<TRIPOS>MOLECULE
[5-(6-aminopurin-9-yl)-4-hydroxy-2-[[[[3-hydroxy-2,2-dimethyl-4-oxo-4-[[3-oxo-3-(2-sulfidoethylamino)propyl]amino]butoxy]-oxido-phosphoryl]oxy-oxido-phosphoryl]oxymethyl]tetrahydrofuran-3-yl] phosphate
   79    81     1     0     0
SMALL
USER_CHARGES

@<TRIPOS>ATOM
      1 N1A        88.6040  -84.6940  -15.4010 N.ar      1 COA        -0.8236
      2 C2A        88.5170  -85.3620  -16.6140 C.ar      1 COA         0.6136
      3 N3A        88.4530  -84.8110  -17.8270 N.ar      1 COA        -0.6607
      4 C4A        88.4890  -83.4640  -17.7910 C.ar      1 COA         0.5602
      5 C5A        88.5780  -82.6230  -16.6440 C.ar      1 COA        -0.1934
      6 C6A        88.6370  -83.3150  -15.3450 C.ar      1 COA         0.6531
      7 N6A        88.7190  -82.6940  -14.2090 N.pl3     1 COA        -0.9183
      8 N7A        88.5930  -81.3110  -16.9840 N.ar      1 COA        -0.6238
      9 C8A        88.5140  -81.2930  -18.3130 C.ar      1 COA         0.5872
     10 N9A        88.4440  -82.5690  -18.8600 N.pl3     1 COA        -0.6280
     11 C1B        88.2830  -82.8930  -20.3050 C.3       1 COA         0.3813
     12 C2B        89.1690  -84.0030  -20.8100 C.3       1 COA         0.0813
     13 O2B        90.4930  -83.5370  -21.0680 O.3       1 COA        -0.6312
     14 C3B        88.4470  -84.3520  -22.1030 C.3       1 COA         0.2107
     15 O3B        88.5340  -83.3380  -23.0200 O.3       1 COA        -0.5599
     16 P3B        88.5670  -83.7630  -24.6320 P.3       1 COA         1.3103
     17 O7A        89.7760  -84.7730  -24.8120 O.2       1 COA        -0.9249
     18 O8A        88.8680  -82.4540  -25.4620 O.3       1 COA        -0.9249
     19 O9A        87.1870  -84.4450  -25.0050 O.3       1 COA        -0.9249
     20 C4B        86.9970  -84.4910  -21.5560 C.3       1 COA         0.0957
     21 O4B        86.9570  -83.4610  -20.4760 O.3       1 COA        -0.4351
     22 C5B        86.5780  -85.7930  -20.9340 C.3       1 COA         0.1679
     23 O5B        86.6630  -86.7650  -22.0150 O.3       1 COA        -0.5824
     24 P1A        85.5120  -87.8990  -22.1320 P.3       1 COA         1.5928
     25 O1A        85.9730  -88.8420  -23.2310 O.2       1 COA        -0.8926
     26 O2A        84.1350  -87.3250  -22.2760 O.3       1 COA        -0.8926
     27 O3A        85.5440  -88.6720  -20.8060 O.3       1 COA        -0.8199
     28 P2A        86.5260  -89.8380  -20.2320 P.3       1 COA         1.5991
     29 O4A        85.9410  -91.2220  -20.3870 O.2       1 COA        -0.8924
     30 O5A        87.9130  -89.7660  -20.8150 O.3       1 COA        -0.8924
     31 O6A        86.6310  -89.4110  -18.6740 O.3       1 COA        -0.5919
     32 CBP        85.9600  -88.6360  -16.5360 C.3       1 COA        -0.0644
     33 CCP        85.5210  -89.4080  -17.8120 C.3       1 COA         0.1939
     34 CDP        87.4920  -88.7900  -16.2100 C.3       1 COA        -0.0888
     35 CEP        85.6020  -87.2100  -16.9500 C.3       1 COA        -0.0888
     36 CAP        85.1850  -89.1370  -15.2540 C.3       1 COA         0.1019
     37 OAP        85.5020  -88.2660  -14.1280 O.3       1 COA        -0.5369
     38 C9P        83.6680  -89.1660  -15.4160 C.2       1 COA         0.6257
     39 O9P        83.0890  -90.0690  -16.2240 O.2       1 COA        -0.6302
     40 N8P        82.9960  -88.2770  -14.7190 N.am      1 COA        -0.5983
     41 C7P        81.5360  -88.1930  -14.7460 C.3       1 COA         0.1055
     42 C6P        81.0500  -88.2840  -13.2980 C.3       1 COA        -0.1805
     43 C5P        81.4830  -89.5720  -12.6330 C.2       1 COA         0.6475
     44 O5P        81.5080  -90.7220  -13.2480 O.2       1 COA        -0.6285
     45 N4P        81.8280  -89.4210  -11.3700 N.am      1 COA        -0.5647
     46 C3P        82.3050  -90.5540  -10.4610 C.3       1 COA         0.0782
     47 C2P        81.0660  -91.3020  -10.0080 C.3       1 COA         0.0638
     48 S1P        81.4370  -92.6410   -8.8190 S.3       1 COA        -1.0094
     49 H2A        88.4990  -86.4230  -16.5720 H         1 COA         0.0187
     50 H61A       88.7598  -83.2668  -13.2708 H         1 COA         0.3809
     51 H62A       88.7477  -81.5947  -14.1840 H         1 COA         0.3809
     52 H8A        88.5050  -80.4030  -18.8910 H         1 COA         0.1409
     53 H1B        88.4770  -81.9515  -20.8397 H         1 COA         0.0952
     54 H2B        89.3598  -84.8274  -20.1072 H         1 COA         0.0546
     55 HO2A       91.1454  -83.2437  -20.2324 H         1 COA         0.4486
     56 H3B        88.8713  -85.1623  -22.7140 H         1 COA         0.0764
     57 H4B        86.2834  -84.3952  -22.3877 H         1 COA         0.1304
     58 H51A       87.2605  -86.0410  -20.1077 H         1 COA         0.0321
     59 H52A       85.5523  -85.7014  -20.5474 H         1 COA         0.0321
     60 H121       84.6753  -88.9064  -18.3050 H         1 COA         0.0531
     61 H122       85.2421  -90.4441  -17.5697 H         1 COA         0.0531
     62 H131       88.0860  -88.4540  -17.0727 H         1 COA         0.0317
     63 H132       87.7175  -89.8456  -15.9983 H         1 COA         0.0317
     64 H133       87.7432  -88.1780  -15.3311 H         1 COA         0.0317
     65 H141       86.1780  -86.9326  -17.8451 H         1 COA         0.0317
     66 H142       85.8437  -86.5184  -16.1295 H         1 COA         0.0317
     67 H143       84.5265  -87.1522  -17.1735 H         1 COA         0.0317
     68 H10        85.5087  -90.1600  -15.0118 H         1 COA         0.0867
     69 HO1        86.5501  -88.1036  -13.8363 H         1 COA         0.4100
     70 HN8        83.5757  -87.5785  -14.0977 H         1 COA         0.3110
     71 H71        81.2320  -87.2366  -15.1965 H         1 COA         0.0591
     72 H72        81.1319  -89.0242  -15.3425 H         1 COA         0.0591
     73 H61        81.4621  -87.4441  -12.7195 H         1 COA         0.0586
     74 H62        79.9511  -88.2397  -13.2766 H         1 COA         0.0586
     75 HN4        81.7547  -88.3956  -10.9785 H         1 COA         0.2843
     76 H31        82.9779  -91.2173  -11.0242 H         1 COA         0.0561
     77 H32        82.8431  -90.1313   -9.5998 H         1 COA         0.0561
     78 H21        80.3736  -90.6017   -9.5181 H         1 COA         0.0036
     79 H22        80.5724  -91.7559  -10.8800 H         1 COA         0.0036
@<TRIPOS>BOND
     1    1    2 ar
     2    1    6 ar
     3    2    3 ar
     4    2   49 1
     5    3    4 ar
     6    4    5 ar
     7    4   10 ar
     8    5    6 ar
     9    5    8 ar
    10    6    7 1
    11    7   50 1
    12    7   51 1
    13    8    9 ar
    14    9   10 ar
    15    9   52 1
    16   10   11 1
    17   11   12 1
    18   11   21 1
    19   11   53 1
    20   12   13 1
    21   12   14 1
    22   12   54 1
    23   13   55 1
    24   14   15 1
    25   14   20 1
    26   14   56 1
    27   15   16 1
    28   16   17 2
    29   16   18 1
    30   16   19 1
    31   20   21 1
    32   20   22 1
    33   20   57 1
    34   22   23 1
    35   22   58 1
    36   22   59 1
    37   23   24 1
    38   24   25 2
    39   24   26 1
    40   24   27 1
    41   27   28 1
    42   28   29 2
    43   28   30 1
    44   28   31 1
    45   31   33 1
    46   32   33 1
    47   32   34 1
    48   32   35 1
    49   32   36 1
    50   33   60 1
    51   33   61 1
    52   34   62 1
    53   34   63 1
    54   34   64 1
    55   35   65 1
    56   35   66 1
    57   35   67 1
    58   36   37 1
    59   36   38 1
    60   36   68 1
    61   37   69 1
    62   38   39 2
    63   38   40 am
    64   40   41 1
    65   40   70 1
    66   41   42 1
    67   41   71 1
    68   41   72 1
    69   42   43 1
    70   42   73 1
    71   42   74 1
    72   43   44 2
    73   43   45 am
    74   45   46 1
    75   45   75 1
    76   46   47 1
    77   46   76 1
    78   46   77 1
    79   47   48 1
    80   47   78 1
    81   47   79 1
@<TRIPOS>SUBSTRUCTURE
     1 COA         1 GROUP   0 A     ****
@<TRIPOS>MOLECULE
[5-(6-aminopurin-9-yl)-4-hydroxy-2-[[[hydroxy-[3-hydroxy-2,2-dimethyl-4-oxo-4-[[3-oxo-3-(2-sulfanylethylamino)propyl]amino]butoxy]phosphoryl]oxy-oxido-phosphoryl]oxymethyl]tetrahydrofuran-3-yl] phosphate
   81    83     1     0     0
SMALL
USER_CHARGES

@<TRIPOS>ATOM
      1 N1A        88.6040  -84.6940  -15.4010 N.ar      1 COA        -0.8091
      2 C2A        88.5170  -85.3620  -16.6140 C.ar      1 COA         0.6338
      3 N3A        88.4530  -84.8110  -17.8270 N.ar      1 COA        -0.6755
      4 C4A        88.4890  -83.4640  -17.7910 C.ar      1 COA         0.5624
      5 C5A        88.5780  -82.6230  -16.6440 C.ar      1 COA        -0.2043
      6 C6A        88.6370  -83.3150  -15.3450 C.ar      1 COA         0.6793
      7 N6A        88.7190  -82.6940  -14.2090 N.pl3     1 COA        -0.9248
      8 N7A        88.5930  -81.3110  -16.9840 N.ar      1 COA        -0.6060
      9 C8A        88.5140  -81.2930  -18.3130 C.ar      1 COA         0.5652
     10 N9A        88.4440  -82.5690  -18.8600 N.pl3     1 COA        -0.6508
     11 C1B        88.2830  -82.8930  -20.3050 C.3       1 COA         0.3714
     12 C2B        89.1690  -84.0030  -20.8100 C.3       1 COA         0.0649
     13 O2B        90.4930  -83.5370  -21.0680 O.3       1 COA        -0.5228
     14 C3B        88.4470  -84.3520  -22.1030 C.3       1 COA         0.2725
     15 O3B        88.5340  -83.3380  -23.0200 O.3       1 COA        -0.5173
     16 P3B        88.5670  -83.7630  -24.6320 P.3       1 COA         1.3078
     17 O7A        89.7760  -84.7730  -24.8120 O.2       1 COA        -0.9236
     18 O8A        88.8680  -82.4540  -25.4620 O.3       1 COA        -0.9236
     19 O9A        87.1870  -84.4450  -25.0050 O.3       1 COA        -0.9236
     20 C4B        86.9970  -84.4910  -21.5560 C.3       1 COA         0.0784
     21 O4B        86.9570  -83.4610  -20.4760 O.3       1 COA        -0.4351
     22 C5B        86.5780  -85.7930  -20.9340 C.3       1 COA         0.1651
     23 O5B        86.6630  -86.7650  -22.0150 O.3       1 COA        -0.5797
     24 P1A        85.5120  -87.8990  -22.1320 P.3       1 COA         1.5523
     25 O1A        85.9730  -88.8420  -23.2310 O.2       1 COA        -0.8361
     26 O2A        84.1350  -87.3250  -22.2760 O.3       1 COA        -0.8361
     27 O3A        85.5440  -88.6720  -20.8060 O.3       1 COA        -0.7720
     28 P2A        86.5260  -89.8380  -20.2320 P.3       1 COA         1.7860
     29 O4A        85.9410  -91.2220  -20.3870 O.2       1 COA        -0.8640
     30 O5A        87.9130  -89.7660  -20.8150 O.3       1 COA        -0.7971
     31 O6A        86.6310  -89.4110  -18.6740 O.3       1 COA        -0.5883
     32 CBP        85.9600  -88.6360  -16.5360 C.3       1 COA        -0.0828
     33 CCP        85.5210  -89.4080  -17.8120 C.3       1 COA         0.2012
     34 CDP        87.4920  -88.7900  -16.2100 C.3       1 COA        -0.0846
     35 CEP        85.6020  -87.2100  -16.9500 C.3       1 COA        -0.0846
     36 CAP        85.1850  -89.1370  -15.2540 C.3       1 COA         0.0802
     37 OAP        85.5020  -88.2660  -14.1280 O.3       1 COA        -0.5965
     38 C9P        83.6680  -89.1660  -15.4160 C.2       1 COA         0.6287
     39 O9P        83.0890  -90.0690  -16.2240 O.2       1 COA        -0.6292
     40 N8P        82.9960  -88.2770  -14.7190 N.am      1 COA        -0.5561
     41 C7P        81.5360  -88.1930  -14.7460 C.3       1 COA         0.0953
     42 C6P        81.0500  -88.2840  -13.2980 C.3       1 COA        -0.1921
     43 C5P        81.4830  -89.5720  -12.6330 C.2       1 COA         0.6671
     44 O5P        81.5080  -90.7220  -13.2480 O.2       1 COA        -0.6437
     45 N4P        81.8280  -89.4210  -11.3700 N.am      1 COA        -0.5798
     46 C3P        82.3050  -90.5540  -10.4610 C.3       1 COA         0.0967
     47 C2P        81.0660  -91.3020  -10.0080 C.3       1 COA        -0.0222
     48 S1P        81.4370  -92.6410   -8.8190 S.3       1 COA        -0.3938
     49 H2A        88.4990  -86.4230  -16.5720 H         1 COA         0.0301
     50 H61A       88.7598  -83.2668  -13.2708 H         1 COA         0.3964
     51 H62A       88.7477  -81.5947  -14.1840 H         1 COA         0.3964
     52 H8A        88.5050  -80.4030  -18.8910 H         1 COA         0.1127
     53 H1B        88.4770  -81.9515  -20.8397 H         1 COA         0.1161
     54 H2B        89.3598  -84.8274  -20.1072 H         1 COA         0.0075
     55 HO2A       91.1454  -83.2437  -20.2324 H         1 COA         0.3498
     56 H3B        88.8713  -85.1623  -22.7140 H         1 COA         0.0702
     57 H4B        86.2834  -84.3952  -22.3877 H         1 COA         0.1285
     58 H51A       87.2605  -86.0410  -20.1077 H         1 COA         0.0414
     59 H52A       85.5523  -85.7014  -20.5474 H         1 COA         0.0414
     60 HOA5       88.0786  -90.0175  -21.8730 H         1 COA         0.4621
     61 H121       84.6753  -88.9064  -18.3050 H         1 COA         0.0174
     62 H122       85.2421  -90.4441  -17.5697 H         1 COA         0.0174
     63 H131       88.0860  -88.4540  -17.0727 H         1 COA         0.0475
     64 H132       87.7175  -89.8456  -15.9983 H         1 COA         0.0475
     65 H133       87.7432  -88.1780  -15.3311 H         1 COA         0.0475
     66 H141       86.1780  -86.9326  -17.8451 H         1 COA         0.0475
     67 H142       85.8437  -86.5184  -16.1295 H         1 COA         0.0475
     68 H143       84.5265  -87.1522  -17.1735 H         1 COA         0.0475
     69 H10        85.5087  -90.1600  -15.0118 H         1 COA         0.0777
     70 HO1        86.5501  -88.1036  -13.8363 H         1 COA         0.4194
     71 HN8        83.5757  -87.5785  -14.0977 H         1 COA         0.3133
     72 H71        81.2320  -87.2366  -15.1965 H         1 COA         0.0678
     73 H72        81.1319  -89.0242  -15.3425 H         1 COA         0.0678
     74 H61        81.4621  -87.4441  -12.7195 H         1 COA         0.0946
     75 H62        79.9511  -88.2397  -13.2766 H         1 COA         0.0946
     76 HN4        81.7547  -88.3956  -10.9785 H         1 COA         0.3369
     77 H31        82.9779  -91.2173  -11.0242 H         1 COA         0.0642
     78 H32        82.8431  -90.1313   -9.5998 H         1 COA         0.0642
     79 H21        80.3736  -90.6017   -9.5181 H         1 COA         0.0735
     80 H22        80.5724  -91.7559  -10.8800 H         1 COA         0.0735
     81 HS1        80.6217  -93.2588   -8.4145 H         1 COA         0.2268
@<TRIPOS>BOND
     1    1    2 ar
     2    1    6 ar
     3    2    3 ar
     4    2   49 1
     5    3    4 ar
     6    4    5 ar
     7    4   10 ar
     8    5    6 ar
     9    5    8 ar
    10    6    7 1
    11    7   50 1
    12    7   51 1
    13    8    9 ar
    14    9   10 ar
    15    9   52 1
    16   10   11 1
    17   11   12 1
    18   11   21 1
    19   11   53 1
    20   12   13 1
    21   12   14 1
    22   12   54 1
    23   13   55 1
    24   14   15 1
    25   14   20 1
    26   14   56 1
    27   15   16 1
    28   16   17 2
    29   16   18 1
    30   16   19 1
    31   20   21 1
    32   20   22 1
    33   20   57 1
    34   22   23 1
    35   22   58 1
    36   22   59 1
    37   23   24 1
    38   24   25 2
    39   24   26 1
    40   24   27 1
    41   27   28 1
    42   28   29 2
    43   28   30 1
    44   28   31 1
    45   30   60 1
    46   31   33 1
    47   32   33 1
    48   32   34 1
    49   32   35 1
    50   32   36 1
    51   33   61 1
    52   33   62 1
    53   34   63 1
    54   34   64 1
    55   34   65 1
    56   35   66 1
    57   35   67 1
    58   35   68 1
    59   36   37 1
    60   36   38 1
    61   36   69 1
    62   37   70 1
    63   38   39 2
    64   38   40 am
    65   40   41 1
    66   40   71 1
    67   41   42 1
    68   41   72 1
    69   41   73 1
    70   42   43 1
    71   42   74 1
    72   42   75 1
    73   43   44 2
    74   43   45 am
    75   45   46 1
    76   45   76 1
    77   46   47 1
    78   46   77 1
    79   46   78 1
    80   47   48 1
    81   47   79 1
    82   47   80 1
    83   48   81 1
@<TRIPOS>SUBSTRUCTURE
     1 COA         1 GROUP   0 A     ****
@<TRIPOS>MOLECULE
[5-(6-aminopurin-9-yl)-4-hydroxy-2-[[hydroxy-[[3-hydroxy-2,2-dimethyl-4-oxo-4-[[3-oxo-3-(2-sulfanylethylamino)propyl]amino]butoxy]-oxido-phosphoryl]oxy-phosphoryl]oxymethyl]tetrahydrofuran-3-yl] phosphate
   81    83     1     0     0
SMALL
USER_CHARGES

@<TRIPOS>ATOM
      1 N1A        88.6040  -84.6940  -15.4010 N.ar      1 COA        -0.8155
      2 C2A        88.5170  -85.3620  -16.6140 C.ar      1 COA         0.6351
      3 N3A        88.4530  -84.8110  -17.8270 N.ar      1 COA        -0.6651
      4 C4A        88.4890  -83.4640  -17.7910 C.ar      1 COA         0.5709
      5 C5A        88.5780  -82.6230  -16.6440 C.ar      1 COA        -0.2027
      6 C6A        88.6370  -83.3150  -15.3450 C.ar      1 COA         0.6797
      7 N6A        88.7190  -82.6940  -14.2090 N.pl3     1 COA        -0.9211
      8 N7A        88.5930  -81.3110  -16.9840 N.ar      1 COA        -0.6091
      9 C8A        88.5140  -81.2930  -18.3130 C.ar      1 COA         0.5588
     10 N9A        88.4440  -82.5690  -18.8600 N.pl3     1 COA        -0.6323
     11 C1B        88.2830  -82.8930  -20.3050 C.3       1 COA         0.3833
     12 C2B        89.1690  -84.0030  -20.8100 C.3       1 COA         0.0824
     13 O2B        90.4930  -83.5370  -21.0680 O.3       1 COA        -0.6231
     14 C3B        88.4470  -84.3520  -22.1030 C.3       1 COA         0.2149
     15 O3B        88.5340  -83.3380  -23.0200 O.3       1 COA        -0.5459
     16 P3B        88.5670  -83.7630  -24.6320 P.3       1 COA         1.3086
     17 O7A        89.7760  -84.7730  -24.8120 O.2       1 COA        -0.9189
     18 O8A        88.8680  -82.4540  -25.4620 O.3       1 COA        -0.9189
     19 O9A        87.1870  -84.4450  -25.0050 O.3       1 COA        -0.9189
     20 C4B        86.9970  -84.4910  -21.5560 C.3       1 COA         0.0820
     21 O4B        86.9570  -83.4610  -20.4760 O.3       1 COA        -0.4430
     22 C5B        86.5780  -85.7930  -20.9340 C.3       1 COA         0.1584
     23 O5B        86.6630  -86.7650  -22.0150 O.3       1 COA        -0.5792
     24 P1A        85.5120  -87.8990  -22.1320 P.3       1 COA         1.7879
     25 O1A        85.9730  -88.8420  -23.2310 O.2       1 COA        -0.8885
     26 O2A        84.1350  -87.3250  -22.2760 O.3       1 COA        -0.7988
     27 O3A        85.5440  -88.6720  -20.8060 O.3       1 COA        -0.8034
     28 P2A        86.5260  -89.8380  -20.2320 P.3       1 COA         1.5769
     29 O4A        85.9410  -91.2220  -20.3870 O.2       1 COA        -0.8343
     30 O5A        87.9130  -89.7660  -20.8150 O.3       1 COA        -0.8343
     31 O6A        86.6310  -89.4110  -18.6740 O.3       1 COA        -0.6079
     32 CBP        85.9600  -88.6360  -16.5360 C.3       1 COA        -0.0487
     33 CCP        85.5210  -89.4080  -17.8120 C.3       1 COA         0.1838
     34 CDP        87.4920  -88.7900  -16.2100 C.3       1 COA        -0.0865
     35 CEP        85.6020  -87.2100  -16.9500 C.3       1 COA        -0.0865
     36 CAP        85.1850  -89.1370  -15.2540 C.3       1 COA         0.0914
     37 OAP        85.5020  -88.2660  -14.1280 O.3       1 COA        -0.5981
     38 C9P        83.6680  -89.1660  -15.4160 C.2       1 COA         0.6314
     39 O9P        83.0890  -90.0690  -16.2240 O.2       1 COA        -0.6688
     40 N8P        82.9960  -88.2770  -14.7190 N.am      1 COA        -0.5567
     41 C7P        81.5360  -88.1930  -14.7460 C.3       1 COA         0.1088
     42 C6P        81.0500  -88.2840  -13.2980 C.3       1 COA        -0.1770
     43 C5P        81.4830  -89.5720  -12.6330 C.2       1 COA         0.6648
     44 O5P        81.5080  -90.7220  -13.2480 O.2       1 COA        -0.5975
     45 N4P        81.8280  -89.4210  -11.3700 N.am      1 COA        -0.6035
     46 C3P        82.3050  -90.5540  -10.4610 C.3       1 COA         0.1005
     47 C2P        81.0660  -91.3020  -10.0080 C.3       1 COA        -0.0139
     48 S1P        81.4370  -92.6410   -8.8190 S.3       1 COA        -0.4196
     49 H2A        88.4990  -86.4230  -16.5720 H         1 COA         0.0315
     50 H61A       88.7598  -83.2668  -13.2708 H         1 COA         0.3924
     51 H62A       88.7477  -81.5947  -14.1840 H         1 COA         0.3924
     52 H8A        88.5050  -80.4030  -18.8910 H         1 COA         0.1006
     53 H1B        88.4770  -81.9515  -20.8397 H         1 COA         0.1111
     54 H2B        89.3598  -84.8274  -20.1072 H         1 COA         0.0404
     55 HO2A       91.1454  -83.2437  -20.2324 H         1 COA         0.4516
     56 H3B        88.8713  -85.1623  -22.7140 H         1 COA         0.0761
     57 H4B        86.2834  -84.3952  -22.3877 H         1 COA         0.1669
     58 H51A       87.2605  -86.0410  -20.1077 H         1 COA         0.0538
     59 H52A       85.5523  -85.7014  -20.5474 H         1 COA         0.0538
     60 HOA2       83.8791  -86.7250  -23.1617 H         1 COA         0.4580
     61 H121       84.6753  -88.9064  -18.3050 H         1 COA         0.0409
     62 H122       85.2421  -90.4441  -17.5697 H         1 COA         0.0409
     63 H131       88.0860  -88.4540  -17.0727 H         1 COA         0.0412
     64 H132       87.7175  -89.8456  -15.9983 H         1 COA         0.0412
     65 H133       87.7432  -88.1780  -15.3311 H         1 COA         0.0412
     66 H141       86.1780  -86.9326  -17.8451 H         1 COA         0.0412
     67 H142       85.8437  -86.5184  -16.1295 H         1 COA         0.0412
     68 H143       84.5265  -87.1522  -17.1735 H         1 COA         0.0412
     69 H10        85.5087  -90.1600  -15.0118 H         1 COA         0.0795
     70 HO1        86.5501  -88.1036  -13.8363 H         1 COA         0.3939
     71 HN8        83.5757  -87.5785  -14.0977 H         1 COA         0.3640
     72 H71        81.2320  -87.2366  -15.1965 H         1 COA         0.0754
     73 H72        81.1319  -89.0242  -15.3425 H         1 COA         0.0754
     74 H61        81.4621  -87.4441  -12.7195 H         1 COA         0.0702
     75 H62        79.9511  -88.2397  -13.2766 H         1 COA         0.0702
     76 HN4        81.7547  -88.3956  -10.9785 H         1 COA         0.3081
     77 H31        82.9779  -91.2173  -11.0242 H         1 COA         0.0621
     78 H32        82.8431  -90.1313   -9.5998 H         1 COA         0.0621
     79 H21        80.3736  -90.6017   -9.5181 H         1 COA         0.0807
     80 H22        80.5724  -91.7559  -10.8800 H         1 COA         0.0807
     81 HS1        80.6217  -93.2588   -8.4145 H         1 COA         0.2182
@<TRIPOS>BOND
     1    1    2 ar
     2    1    6 ar
     3    2    3 ar
     4    2   49 1
     5    3    4 ar
     6    4    5 ar
     7    4   10 ar
     8    5    6 ar
     9    5    8 ar
    10    6    7 1
    11    7   50 1
    12    7   51 1
    13    8    9 ar
    14    9   10 ar
    15    9   52 1
    16   10   11 1
    17   11   12 1
    18   11   21 1
    19   11   53 1
    20   12   13 1
    21   12   14 1
    22   12   54 1
    23   13   55 1
    24   14   15 1
    25   14   20 1
    26   14   56 1
    27   15   16 1
    28   16   17 2
    29   16   18 1
    30   16   19 1
    31   20   21 1
    32   20   22 1
    33   20   57 1
    34   22   23 1
    35   22   58 1
    36   22   59 1
    37   23   24 1
    38   24   25 2
    39   24   26 1
    40   24   27 1
    41   26   60 1
    42   27   28 1
    43   28   29 2
    44   28   30 1
    45   28   31 1
    46   31   33 1
    47   32   33 1
    48   32   34 1
    49   32   35 1
    50   32   36 1
    51   33   61 1
    52   33   62 1
    53   34   63 1
    54   34   64 1
    55   34   65 1
    56   35   66 1
    57   35   67 1
    58   35   68 1
    59   36   37 1
    60   36   38 1
    61   36   69 1
    62   37   70 1
    63   38   39 2
    64   38   40 am
    65   40   41 1
    66   40   71 1
    67   41   42 1
    68   41   72 1
    69   41   73 1
    70   42   43 1
    71   42   74 1
    72   42   75 1
    73   43   44 2
    74   43   45 am
    75   45   46 1
    76   45   76 1
    77   46   47 1
    78   46   77 1
    79   46   78 1
    80   47   48 1
    81   47   79 1
    82   47   80 1
    83   48   81 1
@<TRIPOS>SUBSTRUCTURE
     1 COA         1 GROUP   0 A     ****
@<TRIPOS>MOLECULE
[5-(6-aminopurin-9-yl)-4-hydroxy-2-[[[[3-hydroxy-2,2-dimethyl-4-oxo-4-[[3-oxo-3-(2-sulfidoethylamino)propyl]amino]butoxy]-oxido-phosphoryl]oxy-oxido-phosphoryl]oxymethyl]tetrahydrofuran-3-yl] hydrogen phosphate
   80    82     1     0     0
SMALL
USER_CHARGES

@<TRIPOS>ATOM
      1 N1A        88.6040  -84.6940  -15.4010 N.ar      1 COA        -0.8065
      2 C2A        88.5170  -85.3620  -16.6140 C.ar      1 COA         0.6304
      3 N3A        88.4530  -84.8110  -17.8270 N.ar      1 COA        -0.6895
      4 C4A        88.4890  -83.4640  -17.7910 C.ar      1 COA         0.5705
      5 C5A        88.5780  -82.6230  -16.6440 C.ar      1 COA        -0.2013
      6 C6A        88.6370  -83.3150  -15.3450 C.ar      1 COA         0.6823
      7 N6A        88.7190  -82.6940  -14.2090 N.pl3     1 COA        -0.9314
      8 N7A        88.5930  -81.3110  -16.9840 N.ar      1 COA        -0.6001
      9 C8A        88.5140  -81.2930  -18.3130 C.ar      1 COA         0.5888
     10 N9A        88.4440  -82.5690  -18.8600 N.pl3     1 COA        -0.6603
     11 C1B        88.2830  -82.8930  -20.3050 C.3       1 COA         0.3927
     12 C2B        89.1690  -84.0030  -20.8100 C.3       1 COA         0.0988
     13 O2B        90.4930  -83.5370  -21.0680 O.3       1 COA        -0.6066
     14 C3B        88.4470  -84.3520  -22.1030 C.3       1 COA         0.1493
     15 O3B        88.5340  -83.3380  -23.0200 O.3       1 COA        -0.5851
     16 P3B        88.5670  -83.7630  -24.6320 P.3       1 COA         1.4288
     17 O7A        89.7760  -84.7730  -24.8120 O.2       1 COA        -0.8255
     18 O8A        88.8680  -82.4540  -25.4620 O.3       1 COA        -0.8255
     19 O9A        87.1870  -84.4450  -25.0050 O.3       1 COA        -0.7934
     20 C4B        86.9970  -84.4910  -21.5560 C.3       1 COA         0.1099
     21 O4B        86.9570  -83.4610  -20.4760 O.3       1 COA        -0.4175
     22 C5B        86.5780  -85.7930  -20.9340 C.3       1 COA         0.1686
     23 O5B        86.6630  -86.7650  -22.0150 O.3       1 COA        -0.5741
     24 P1A        85.5120  -87.8990  -22.1320 P.3       1 COA         1.5925
     25 O1A        85.9730  -88.8420  -23.2310 O.2       1 COA        -0.8812
     26 O2A        84.1350  -87.3250  -22.2760 O.3       1 COA        -0.8812
     27 O3A        85.5440  -88.6720  -20.8060 O.3       1 COA        -0.8160
     28 P2A        86.5260  -89.8380  -20.2320 P.3       1 COA         1.5858
     29 O4A        85.9410  -91.2220  -20.3870 O.2       1 COA        -0.8767
     30 O5A        87.9130  -89.7660  -20.8150 O.3       1 COA        -0.8767
     31 O6A        86.6310  -89.4110  -18.6740 O.3       1 COA        -0.5986
     32 CBP        85.9600  -88.6360  -16.5360 C.3       1 COA        -0.0767
     33 CCP        85.5210  -89.4080  -17.8120 C.3       1 COA         0.1907
     34 CDP        87.4920  -88.7900  -16.2100 C.3       1 COA        -0.0880
     35 CEP        85.6020  -87.2100  -16.9500 C.3       1 COA        -0.0880
     36 CAP        85.1850  -89.1370  -15.2540 C.3       1 COA         0.0918
     37 OAP        85.5020  -88.2660  -14.1280 O.3       1 COA        -0.6211
     38 C9P        83.6680  -89.1660  -15.4160 C.2       1 COA         0.6393
     39 O9P        83.0890  -90.0690  -16.2240 O.2       1 COA        -0.6927
     40 N8P        82.9960  -88.2770  -14.7190 N.am      1 COA        -0.5450
     41 C7P        81.5360  -88.1930  -14.7460 C.3       1 COA         0.1078
     42 C6P        81.0500  -88.2840  -13.2980 C.3       1 COA        -0.1797
     43 C5P        81.4830  -89.5720  -12.6330 C.2       1 COA         0.6533
     44 O5P        81.5080  -90.7220  -13.2480 O.2       1 COA        -0.6289
     45 N4P        81.8280  -89.4210  -11.3700 N.am      1 COA        -0.5749
     46 C3P        82.3050  -90.5540  -10.4610 C.3       1 COA         0.0812
     47 C2P        81.0660  -91.3020  -10.0080 C.3       1 COA         0.0669
     48 S1P        81.4370  -92.6410   -8.8190 S.3       1 COA        -1.0027
     49 H2A        88.4990  -86.4230  -16.5720 H         1 COA         0.0229
     50 H61A       88.7598  -83.2668  -13.2708 H         1 COA         0.4027
     51 H62A       88.7477  -81.5947  -14.1840 H         1 COA         0.4027
     52 H8A        88.5050  -80.4030  -18.8910 H         1 COA         0.1434
     53 H1B        88.4770  -81.9515  -20.8397 H         1 COA         0.0890
     54 H2B        89.3598  -84.8274  -20.1072 H         1 COA         0.0829
     55 HO2A       91.1454  -83.2437  -20.2324 H         1 COA         0.4303
     56 H3B        88.8713  -85.1623  -22.7140 H         1 COA         0.0961
     57 HOA9       86.8712  -85.3646  -24.4906 H         1 COA         0.4237
     58 H4B        86.2834  -84.3952  -22.3877 H         1 COA         0.0989
     59 H51A       87.2605  -86.0410  -20.1077 H         1 COA         0.0429
     60 H52A       85.5523  -85.7014  -20.5474 H         1 COA         0.0429
     61 H121       84.6753  -88.9064  -18.3050 H         1 COA         0.0335
     62 H122       85.2421  -90.4441  -17.5697 H         1 COA         0.0335
     63 H131       88.0860  -88.4540  -17.0727 H         1 COA         0.0376
     64 H132       87.7175  -89.8456  -15.9983 H         1 COA         0.0376
     65 H133       87.7432  -88.1780  -15.3311 H         1 COA         0.0376
     66 H141       86.1780  -86.9326  -17.8451 H         1 COA         0.0376
     67 H142       85.8437  -86.5184  -16.1295 H         1 COA         0.0376
     68 H143       84.5265  -87.1522  -17.1735 H         1 COA         0.0376
     69 H10        85.5087  -90.1600  -15.0118 H         1 COA         0.1167
     70 HO1        86.5501  -88.1036  -13.8363 H         1 COA         0.4049
     71 HN8        83.5757  -87.5785  -14.0977 H         1 COA         0.3622
     72 H71        81.2320  -87.2366  -15.1965 H         1 COA         0.0704
     73 H72        81.1319  -89.0242  -15.3425 H         1 COA         0.0704
     74 H61        81.4621  -87.4441  -12.7195 H         1 COA         0.0597
     75 H62        79.9511  -88.2397  -13.2766 H         1 COA         0.0597
     76 HN4        81.7547  -88.3956  -10.9785 H         1 COA         0.2852
     77 H31        82.9779  -91.2173  -11.0242 H         1 COA         0.0574
     78 H32        82.8431  -90.1313   -9.5998 H         1 COA         0.0574
     79 H21        80.3736  -90.6017   -9.5181 H         1 COA         0.0003
     80 H22        80.5724  -91.7559  -10.8800 H         1 COA         0.0003
@<TRIPOS>BOND
     1    1    2 ar
     2    1    6 ar
     3    2    3 ar
     4    2   49 1
     5    3    4 ar
     6    4    5 ar
     7    4   10 ar
     8    5    6 ar
     9    5    8 ar
    10    6    7 1
    11    7   50 1
    12    7   51 1
    13    8    9 ar
    14    9   10 ar
    15    9   52 1
    16   10   11 1
    17   11   12 1
    18   11   21 1
    19   11   53 1
    20   12   13 1
    21   12   14 1
    22   12   54 1
    23   13   55 1
    24   14   15 1
    25   14   20 1
    26   14   56 1
    27   15   16 1
    28   16   17 2
    29   16   18 1
    30   16   19 1
    31   19   57 1
    32   20   21 1
    33   20   22 1
    34   20   58 1
    35   22   23 1
    36   22   59 1
    37   22   60 1
    38   23   24 1
    39   24   25 2
    40   24   26 1
    41   24   27 1
    42   27   28 1
    43   28   29 2
    44   28   30 1
    45   28   31 1
    46   31   33 1
    47   32   33 1
    48   32   34 1
    49   32   35 1
    50   32   36 1
    51   33   61 1
    52   33   62 1
    53   34   63 1
    54   34   64 1
    55   34   65 1
    56   35   66 1
    57   35   67 1
    58   35   68 1
    59   36   37 1
    60   36   38 1
    61   36   69 1
    62   37   70 1
    63   38   39 2
    64   38   40 am
    65   40   41 1
    66   40   71 1
    67   41   42 1
    68   41   72 1
    69   41   73 1
    70   42   43 1
    71   42   74 1
    72   42   75 1
    73   43   44 2
    74   43   45 am
    75   45   46 1
    76   45   76 1
    77   46   47 1
    78   46   77 1
    79   46   78 1
    80   47   48 1
    81   47   79 1
    82   47   80 1
@<TRIPOS>SUBSTRUCTURE
     1 COA         1 GROUP   0 A     ****
