@<TRIPOS>MOLECULE
[[5-(6-aminopurin-9-yl)-3,4-dihydroxy-tetrahydrofuran-2-yl]methoxy-oxido-phosphoryl] [5-(7,8-dimethyl-2,4-dioxo-benzo[g]pteridin-10-yl)-2,3,4-trihydroxy-pentyl] phosphate
   84    89     1     0     0
SMALL
USER_CHARGES

@<TRIPOS>ATOM
      1 PA         21.8380    0.8050   23.1700 P.3       1 FAD         1.5668
      2 O1A        21.3030   -0.5190   22.7220 O.2       1 FAD        -0.8622
      3 O2A        21.2420    1.9380   22.7450 O.3       1 FAD        -0.8622
      4 O5B        21.5190    0.6820   24.6440 O.3       1 FAD        -0.5621
      5 C5B        21.8970    1.6430   25.6850 C.3       1 FAD         0.2060
      6 C4B        20.9970    1.3300   26.9450 C.3       1 FAD         0.0838
      7 O4B        21.4600    2.2240   28.0530 O.3       1 FAD        -0.3984
      8 C3B        19.4600    1.6220   26.8060 C.3       1 FAD         0.0822
      9 O3B        18.6710    0.5790   27.2900 O.3       1 FAD        -0.6128
     10 C2B        19.2980    2.9730   27.5740 C.3       1 FAD         0.0713
     11 O2B        18.0040    3.1220   28.1030 O.3       1 FAD        -0.5918
     12 C1B        20.2760    2.7830   28.6990 C.3       1 FAD         0.4096
     13 N9A        20.8010    4.0200   29.2670 N.pl3     1 FAD        -0.6840
     14 C8A        21.1540    5.1530   28.5750 C.ar      1 FAD         0.5802
     15 N7A        21.6680    6.0970   29.3600 N.ar      1 FAD        -0.5778
     16 C5A        21.5630    5.5850   30.6310 C.ar      1 FAD        -0.2035
     17 C6A        21.9270    6.1470   31.9320 C.ar      1 FAD         0.7084
     18 N6A        22.3520    7.3730   32.0980 N.pl3     1 FAD        -0.9319
     19 N1A        21.5850    5.3620   32.9970 N.ar      1 FAD        -0.8047
     20 C2A        21.0280    4.1270   32.8470 C.ar      1 FAD         0.6499
     21 N3A        20.7580    3.4920   31.6950 N.ar      1 FAD        -0.7057
     22 C4A        21.0940    4.2440   30.6070 C.ar      1 FAD         0.5713
     23 N1         21.1130   -2.2310   14.3340 N.ar      1 FAD        -0.6853
     24 C2         21.3700   -3.3170   13.6190 C.ar      1 FAD         0.8525
     25 O2         22.4720   -3.7950   13.5580 O.2       1 FAD        -0.6049
     26 N3         20.3350   -4.0620   12.9920 N.am      1 FAD        -0.6220
     27 C4         19.0640   -3.5450   12.8700 C.ar      1 FAD         0.6338
     28 O4         18.2010   -4.1990   12.3240 O.2       1 FAD        -0.6054
     29 C4X        18.8420   -2.2200   13.4310 C.ar      1 FAD         0.2271
     30 N5         17.6210   -1.6430   13.3240 N.ar      1 FAD        -0.4264
     31 C5X        17.4010   -0.5070   14.0540 C.ar      1 FAD         0.0186
     32 C6         16.0920    0.0300   14.0340 C.ar      1 FAD        -0.0514
     33 C7         15.7290    1.0490   14.8790 C.ar      1 FAD        -0.1187
     34 C7M        14.3190    1.5870   14.8590 C.3       1 FAD        -0.0469
     35 C8         16.6660    1.5470   15.8520 C.ar      1 FAD        -0.0007
     36 C8M        16.3340    2.7180   16.7390 C.3       1 FAD        -0.0708
     37 C9         17.9420    0.9810   15.9280 C.ar      1 FAD        -0.1734
     38 C9A        18.3310    0.0200   14.9920 C.ar      1 FAD         0.1741
     39 N10        19.6330   -0.5660   14.9940 N.pl3     1 FAD        -0.5376
     40 C10        19.8920   -1.6530   14.2710 C.ar      1 FAD         0.6242
     41 C1'        20.6850    0.0690   15.8130 C.3       1 FAD         0.1938
     42 C2'        21.0540   -0.7970   17.0450 C.3       1 FAD         0.0844
     43 O2'        19.8580   -1.0730   17.7680 O.3       1 FAD        -0.6092
     44 C3'        21.9860    0.0460   17.9030 C.3       1 FAD         0.1034
     45 O3'        23.1720    0.2940   17.1450 O.3       1 FAD        -0.5825
     46 C4'        22.3780   -0.7320   19.1670 C.3       1 FAD         0.1313
     47 O4'        21.2310   -1.0360   19.9620 O.3       1 FAD        -0.6714
     48 C5'        23.3750    0.1170   19.9180 C.3       1 FAD         0.1643
     49 O5'        23.8840   -0.6520   21.1830 O.3       1 FAD        -0.5939
     50 P          24.5070    0.1030   22.3450 P.3       1 FAD         1.5888
     51 O1P        24.9820   -0.9910   23.3090 O.2       1 FAD        -0.8647
     52 O2P        25.4370    1.0540   21.9500 O.3       1 FAD        -0.8647
     53 O3P        23.4730    0.8660   23.0320 O.3       1 FAD        -0.8132
     54 H51A       22.9631    1.5210   25.9270 H         1 FAD         0.0169
     55 H52A       21.7181    2.6659   25.3221 H         1 FAD         0.0169
     56 H4B        21.1215    0.2571   27.1533 H         1 FAD         0.1331
     57 H3B        19.0330    1.6103   25.7923 H         1 FAD         0.1023
     58 HO3A       18.7161   -0.4115   26.8137 H         1 FAD         0.4173
     59 H2B        19.4002    3.8970   26.9859 H         1 FAD         0.0806
     60 HO2A       17.1481    3.2725   27.4286 H         1 FAD         0.4152
     61 H1B        19.7898    2.2057   29.4992 H         1 FAD         0.0931
     62 H8A        21.0350    5.2920   27.4870 H         1 FAD         0.1340
     63 H61A       22.6212    7.9848   31.2244 H         1 FAD         0.4147
     64 H62A       22.4402    7.7921   33.1112 H         1 FAD         0.4147
     65 H2A        20.7640    3.5760   33.7660 H         1 FAD         0.0324
     66 HN3        20.5432   -5.0668   12.5956 H         1 FAD         0.3357
     67 H6         15.3300   -0.3580   13.3370 H         1 FAD         0.1485
     68 HM71       13.7503    1.0953   14.0560 H         1 FAD         0.0425
     69 HM72       14.3431    2.6721   14.6799 H         1 FAD         0.0425
     70 HM73       13.8360    1.3857   15.8266 H         1 FAD         0.0425
     71 HM81       15.2979    3.0369   16.5527 H         1 FAD         0.0605
     72 HM82       17.0190    3.5502   16.5193 H         1 FAD         0.0605
     73 HM83       16.4427    2.4221   17.7929 H         1 FAD         0.0605
     74 H9         18.6390    1.2910   16.7230 H         1 FAD         0.1983
     75 H1'1       21.5903    0.2076   15.2038 H         1 FAD         0.1083
     76 H1'2       20.3307    1.0469   16.1710 H         1 FAD         0.1083
     77 H2'        21.4878   -1.7791   16.8058 H         1 FAD         0.0714
     78 HO2'       19.0616   -1.6741   17.3048 H         1 FAD         0.4029
     79 H3'        21.5298    1.0156   18.1516 H         1 FAD         0.0451
     80 HO3'       23.1120    0.8433   16.1939 H         1 FAD         0.4022
     81 H4'        22.7871   -1.7307   18.9541 H         1 FAD         0.0526
     82 HO4'       20.4189   -1.6490   19.5440 H         1 FAD         0.4590
     83 H5'1       24.2294    0.3444   19.2636 H         1 FAD         0.0509
     84 H5'2       22.8943    1.0550   20.2327 H         1 FAD         0.0509
@<TRIPOS>BOND
     1    1    2 2
     2    1    3 1
     3    1    4 1
     4    1   53 1
     5    4    5 1
     6    5    6 1
     7    5   54 1
     8    5   55 1
     9    6    7 1
    10    6    8 1
    11    6   56 1
    12    7   12 1
    13    8    9 1
    14    8   10 1
    15    8   57 1
    16    9   58 1
    17   10   11 1
    18   10   12 1
    19   10   59 1
    20   11   60 1
    21   12   13 1
    22   12   61 1
    23   13   14 ar
    24   13   22 ar
    25   14   15 ar
    26   14   62 1
    27   15   16 ar
    28   16   17 ar
    29   16   22 ar
    30   17   18 1
    31   17   19 ar
    32   18   63 1
    33   18   64 1
    34   19   20 ar
    35   20   21 ar
    36   20   65 1
    37   21   22 ar
    38   23   24 ar
    39   23   40 ar
    40   24   25 2
    41   24   26 ar
    42   26   27 ar
    43   26   66 1
    44   27   28 2
    45   27   29 ar
    46   29   30 ar
    47   29   40 1
    48   30   31 ar
    49   31   32 ar
    50   31   38 ar
    51   32   33 ar
    52   32   67 1
    53   33   34 1
    54   33   35 ar
    55   34   68 1
    56   34   69 1
    57   34   70 1
    58   35   36 1
    59   35   37 ar
    60   36   71 1
    61   36   72 1
    62   36   73 1
    63   37   38 ar
    64   37   74 1
    65   38   39 ar
    66   39   40 ar
    67   39   41 1
    68   41   42 1
    69   41   75 1
    70   41   76 1
    71   42   43 1
    72   42   44 1
    73   42   77 1
    74   43   78 1
    75   44   45 1
    76   44   46 1
    77   44   79 1
    78   45   80 1
    79   46   47 1
    80   46   48 1
    81   46   81 1
    82   47   82 1
    83   48   49 1
    84   48   83 1
    85   48   84 1
    86   49   50 1
    87   50   51 2
    88   50   52 1
    89   50   53 1
@<TRIPOS>SUBSTRUCTURE
     1 FAD         1 GROUP   0 A     ****
@<TRIPOS>MOLECULE
[[5-(6-aminopurin-9-yl)-3,4-dihydroxy-tetrahydrofuran-2-yl]methoxy-oxido-phosphoryl] [5-(7,8-dimethyl-2-oxido-4-oxo-benzo[g]pteridin-10-yl)-2,3,4-trihydroxy-pentyl] phosphate
   83    88     1     0     0
SMALL
USER_CHARGES

@<TRIPOS>ATOM
      1 PA         21.8380    0.8050   23.1700 P.3       1 FAD         1.5683
      2 O1A        21.3030   -0.5190   22.7220 O.2       1 FAD        -0.8669
      3 O2A        21.2420    1.9380   22.7450 O.3       1 FAD        -0.8669
      4 O5B        21.5190    0.6820   24.6440 O.3       1 FAD        -0.5617
      5 C5B        21.8970    1.6430   25.6850 C.3       1 FAD         0.2005
      6 C4B        20.9970    1.3300   26.9450 C.3       1 FAD         0.1090
      7 O4B        21.4600    2.2240   28.0530 O.3       1 FAD        -0.3940
      8 C3B        19.4600    1.6220   26.8060 C.3       1 FAD         0.0886
      9 O3B        18.6710    0.5790   27.2900 O.3       1 FAD        -0.5863
     10 C2B        19.2980    2.9730   27.5740 C.3       1 FAD         0.0536
     11 O2B        18.0040    3.1220   28.1030 O.3       1 FAD        -0.5935
     12 C1B        20.2760    2.7830   28.6990 C.3       1 FAD         0.4317
     13 N9A        20.8010    4.0200   29.2670 N.pl3     1 FAD        -0.6881
     14 C8A        21.1540    5.1530   28.5750 C.ar      1 FAD         0.5855
     15 N7A        21.6680    6.0970   29.3600 N.ar      1 FAD        -0.5801
     16 C5A        21.5630    5.5850   30.6310 C.ar      1 FAD        -0.2003
     17 C6A        21.9270    6.1470   31.9320 C.ar      1 FAD         0.7068
     18 N6A        22.3520    7.3730   32.0980 N.pl3     1 FAD        -0.9337
     19 N1A        21.5850    5.3620   32.9970 N.ar      1 FAD        -0.8074
     20 C2A        21.0280    4.1270   32.8470 C.ar      1 FAD         0.6463
     21 N3A        20.7580    3.4920   31.6950 N.ar      1 FAD        -0.7086
     22 C4A        21.0940    4.2440   30.6070 C.ar      1 FAD         0.5648
     23 N1         21.1130   -2.2310   14.3340 N.ar      1 FAD        -0.7885
     24 C2         21.3700   -3.3170   13.6190 C.ar      1 FAD         1.1317
     25 O2         22.4720   -3.7950   13.5580 O.3       1 FAD        -0.7065
     26 N3         20.3350   -4.0620   12.9920 N.ar      1 FAD        -0.8707
     27 C4         19.0640   -3.5450   12.8700 C.ar      1 FAD         0.6637
     28 O4         18.2010   -4.1990   12.3240 O.2       1 FAD        -0.6974
     29 C4X        18.8420   -2.2200   13.4310 C.ar      1 FAD         0.2489
     30 N5         17.6210   -1.6430   13.3240 N.ar      1 FAD        -0.5016
     31 C5X        17.4010   -0.5070   14.0540 C.ar      1 FAD         0.0384
     32 C6         16.0920    0.0300   14.0340 C.ar      1 FAD        -0.0640
     33 C7         15.7290    1.0490   14.8790 C.ar      1 FAD        -0.1542
     34 C7M        14.3190    1.5870   14.8590 C.3       1 FAD        -0.0294
     35 C8         16.6660    1.5470   15.8520 C.ar      1 FAD        -0.0411
     36 C8M        16.3340    2.7180   16.7390 C.3       1 FAD        -0.0526
     37 C9         17.9420    0.9810   15.9280 C.ar      1 FAD        -0.1827
     38 C9A        18.3310    0.0200   14.9920 C.ar      1 FAD         0.1708
     39 N10        19.6330   -0.5660   14.9940 N.pl3     1 FAD        -0.5881
     40 C10        19.8920   -1.6530   14.2710 C.ar      1 FAD         0.5598
     41 C1'        20.6850    0.0690   15.8130 C.3       1 FAD         0.2065
     42 C2'        21.0540   -0.7970   17.0450 C.3       1 FAD         0.0783
     43 O2'        19.8580   -1.0730   17.7680 O.3       1 FAD        -0.5897
     44 C3'        21.9860    0.0460   17.9030 C.3       1 FAD         0.1082
     45 O3'        23.1720    0.2940   17.1450 O.3       1 FAD        -0.5953
     46 C4'        22.3780   -0.7320   19.1670 C.3       1 FAD         0.1321
     47 O4'        21.2310   -1.0360   19.9620 O.3       1 FAD        -0.6576
     48 C5'        23.3750    0.1170   19.9180 C.3       1 FAD         0.1570
     49 O5'        23.8840   -0.6520   21.1830 O.3       1 FAD        -0.5947
     50 P          24.5070    0.1030   22.3450 P.3       1 FAD         1.5794
     51 O1P        24.9820   -0.9910   23.3090 O.2       1 FAD        -0.8633
     52 O2P        25.4370    1.0540   21.9500 O.3       1 FAD        -0.8633
     53 O3P        23.4730    0.8660   23.0320 O.3       1 FAD        -0.8077
     54 H51A       22.9631    1.5210   25.9270 H         1 FAD         0.0126
     55 H52A       21.7181    2.6659   25.3221 H         1 FAD         0.0126
     56 H4B        21.1215    0.2571   27.1533 H         1 FAD         0.1411
     57 H3B        19.0330    1.6103   25.7923 H         1 FAD         0.0831
     58 HO3A       18.7161   -0.4115   26.8137 H         1 FAD         0.3985
     59 H2B        19.4002    3.8970   26.9859 H         1 FAD         0.0720
     60 HO2A       17.1481    3.2725   27.4286 H         1 FAD         0.4028
     61 H1B        19.7898    2.2057   29.4992 H         1 FAD         0.0972
     62 H8A        21.0350    5.2920   27.4870 H         1 FAD         0.1408
     63 H61A       22.6212    7.9848   31.2244 H         1 FAD         0.4139
     64 H62A       22.4402    7.7921   33.1112 H         1 FAD         0.4139
     65 H2A        20.7640    3.5760   33.7660 H         1 FAD         0.0308
     66 H6         15.3300   -0.3580   13.3370 H         1 FAD         0.1314
     67 HM71       13.7503    1.0953   14.0560 H         1 FAD         0.0254
     68 HM72       14.3431    2.6721   14.6799 H         1 FAD         0.0254
     69 HM73       13.8360    1.3857   15.8266 H         1 FAD         0.0254
     70 HM81       15.2979    3.0369   16.5527 H         1 FAD         0.0418
     71 HM82       17.0190    3.5502   16.5193 H         1 FAD         0.0418
     72 HM83       16.4427    2.4221   17.7929 H         1 FAD         0.0418
     73 H9         18.6390    1.2910   16.7230 H         1 FAD         0.1786
     74 H1'1       21.5903    0.2076   15.2038 H         1 FAD         0.0916
     75 H1'2       20.3307    1.0469   16.1710 H         1 FAD         0.0916
     76 H2'        21.4878   -1.7791   16.8058 H         1 FAD         0.0658
     77 HO2'       19.0616   -1.6741   17.3048 H         1 FAD         0.3868
     78 H3'        21.5298    1.0156   18.1516 H         1 FAD         0.0326
     79 HO3'       23.1120    0.8433   16.1939 H         1 FAD         0.4118
     80 H4'        22.7871   -1.7307   18.9541 H         1 FAD         0.0491
     81 HO4'       20.4189   -1.6490   19.5440 H         1 FAD         0.4482
     82 H5'1       24.2294    0.3444   19.2636 H         1 FAD         0.0491
     83 H5'2       22.8943    1.0550   20.2327 H         1 FAD         0.0491
@<TRIPOS>BOND
     1    1    2 2
     2    1    3 1
     3    1    4 1
     4    1   53 1
     5    4    5 1
     6    5    6 1
     7    5   54 1
     8    5   55 1
     9    6    7 1
    10    6    8 1
    11    6   56 1
    12    7   12 1
    13    8    9 1
    14    8   10 1
    15    8   57 1
    16    9   58 1
    17   10   11 1
    18   10   12 1
    19   10   59 1
    20   11   60 1
    21   12   13 1
    22   12   61 1
    23   13   14 ar
    24   13   22 ar
    25   14   15 ar
    26   14   62 1
    27   15   16 ar
    28   16   17 ar
    29   16   22 ar
    30   17   18 1
    31   17   19 ar
    32   18   63 1
    33   18   64 1
    34   19   20 ar
    35   20   21 ar
    36   20   65 1
    37   21   22 ar
    38   23   24 ar
    39   23   40 ar
    40   24   25 1
    41   24   26 ar
    42   26   27 ar
    43   27   28 2
    44   27   29 ar
    45   29   30 ar
    46   29   40 1
    47   30   31 ar
    48   31   32 ar
    49   31   38 ar
    50   32   33 ar
    51   32   66 1
    52   33   34 1
    53   33   35 ar
    54   34   67 1
    55   34   68 1
    56   34   69 1
    57   35   36 1
    58   35   37 ar
    59   36   70 1
    60   36   71 1
    61   36   72 1
    62   37   38 ar
    63   37   73 1
    64   38   39 ar
    65   39   40 ar
    66   39   41 1
    67   41   42 1
    68   41   74 1
    69   41   75 1
    70   42   43 1
    71   42   44 1
    72   42   76 1
    73   43   77 1
    74   44   45 1
    75   44   46 1
    76   44   78 1
    77   45   79 1
    78   46   47 1
    79   46   48 1
    80   46   80 1
    81   47   81 1
    82   48   49 1
    83   48   82 1
    84   48   83 1
    85   49   50 1
    86   50   51 2
    87   50   52 1
    88   50   53 1
@<TRIPOS>SUBSTRUCTURE
     1 FAD         1 GROUP   0 A     ****
@<TRIPOS>MOLECULE
[[5-(6-aminopurin-9-yl)-3-hydroxy-4-oxido-tetrahydrofuran-2-yl]methoxy-oxido-phosphoryl] [5-(7,8-dimethyl-2,4-dioxo-benzo[g]pteridin-10-yl)-2,3,4-trihydroxy-pentyl] phosphate
   83    88     1     0     0
SMALL
USER_CHARGES

@<TRIPOS>ATOM
      1 PA         21.8380    0.8050   23.1700 P.3       1 FAD         1.5593
      2 O1A        21.3030   -0.5190   22.7220 O.2       1 FAD        -0.8722
      3 O2A        21.2420    1.9380   22.7450 O.3       1 FAD        -0.8722
      4 O5B        21.5190    0.6820   24.6440 O.3       1 FAD        -0.5668
      5 C5B        21.8970    1.6430   25.6850 C.3       1 FAD         0.1859
      6 C4B        20.9970    1.3300   26.9450 C.3       1 FAD         0.1238
      7 O4B        21.4600    2.2240   28.0530 O.3       1 FAD        -0.4193
      8 C3B        19.4600    1.6220   26.8060 C.3       1 FAD         0.0399
      9 O3B        18.6710    0.5790   27.2900 O.3       1 FAD        -0.6376
     10 C2B        19.2980    2.9730   27.5740 C.3       1 FAD         0.3659
     11 O2B        18.0040    3.1220   28.1030 O.3       1 FAD        -0.8611
     12 C1B        20.2760    2.7830   28.6990 C.3       1 FAD         0.3037
     13 N9A        20.8010    4.0200   29.2670 N.pl3     1 FAD        -0.6058
     14 C8A        21.1540    5.1530   28.5750 C.ar      1 FAD         0.5761
     15 N7A        21.6680    6.0970   29.3600 N.ar      1 FAD        -0.6170
     16 C5A        21.5630    5.5850   30.6310 C.ar      1 FAD        -0.1953
     17 C6A        21.9270    6.1470   31.9320 C.ar      1 FAD         0.6622
     18 N6A        22.3520    7.3730   32.0980 N.pl3     1 FAD        -0.9164
     19 N1A        21.5850    5.3620   32.9970 N.ar      1 FAD        -0.8119
     20 C2A        21.0280    4.1270   32.8470 C.ar      1 FAD         0.6176
     21 N3A        20.7580    3.4920   31.6950 N.ar      1 FAD        -0.6775
     22 C4A        21.0940    4.2440   30.6070 C.ar      1 FAD         0.5595
     23 N1         21.1130   -2.2310   14.3340 N.ar      1 FAD        -0.6843
     24 C2         21.3700   -3.3170   13.6190 C.ar      1 FAD         0.8539
     25 O2         22.4720   -3.7950   13.5580 O.2       1 FAD        -0.6073
     26 N3         20.3350   -4.0620   12.9920 N.am      1 FAD        -0.6222
     27 C4         19.0640   -3.5450   12.8700 C.ar      1 FAD         0.6345
     28 O4         18.2010   -4.1990   12.3240 O.2       1 FAD        -0.6155
     29 C4X        18.8420   -2.2200   13.4310 C.ar      1 FAD         0.2230
     30 N5         17.6210   -1.6430   13.3240 N.ar      1 FAD        -0.4292
     31 C5X        17.4010   -0.5070   14.0540 C.ar      1 FAD         0.0168
     32 C6         16.0920    0.0300   14.0340 C.ar      1 FAD        -0.0536
     33 C7         15.7290    1.0490   14.8790 C.ar      1 FAD        -0.1211
     34 C7M        14.3190    1.5870   14.8590 C.3       1 FAD        -0.0458
     35 C8         16.6660    1.5470   15.8520 C.ar      1 FAD         0.0010
     36 C8M        16.3340    2.7180   16.7390 C.3       1 FAD        -0.0723
     37 C9         17.9420    0.9810   15.9280 C.ar      1 FAD        -0.1700
     38 C9A        18.3310    0.0200   14.9920 C.ar      1 FAD         0.1769
     39 N10        19.6330   -0.5660   14.9940 N.pl3     1 FAD        -0.5310
     40 C10        19.8920   -1.6530   14.2710 C.ar      1 FAD         0.6274
     41 C1'        20.6850    0.0690   15.8130 C.3       1 FAD         0.1898
     42 C2'        21.0540   -0.7970   17.0450 C.3       1 FAD         0.0812
     43 O2'        19.8580   -1.0730   17.7680 O.3       1 FAD        -0.6186
     44 C3'        21.9860    0.0460   17.9030 C.3       1 FAD         0.1081
     45 O3'        23.1720    0.2940   17.1450 O.3       1 FAD        -0.5712
     46 C4'        22.3780   -0.7320   19.1670 C.3       1 FAD         0.1150
     47 O4'        21.2310   -1.0360   19.9620 O.3       1 FAD        -0.6801
     48 C5'        23.3750    0.1170   19.9180 C.3       1 FAD         0.1774
     49 O5'        23.8840   -0.6520   21.1830 O.3       1 FAD        -0.5771
     50 P          24.5070    0.1030   22.3450 P.3       1 FAD         1.5753
     51 O1P        24.9820   -0.9910   23.3090 O.2       1 FAD        -0.8664
     52 O2P        25.4370    1.0540   21.9500 O.3       1 FAD        -0.8664
     53 O3P        23.4730    0.8660   23.0320 O.3       1 FAD        -0.8020
     54 H51A       22.9631    1.5210   25.9270 H         1 FAD         0.0115
     55 H52A       21.7181    2.6659   25.3221 H         1 FAD         0.0115
     56 H4B        21.1215    0.2571   27.1533 H         1 FAD         0.0896
     57 H3B        19.0330    1.6103   25.7923 H         1 FAD         0.0365
     58 HO3A       18.7161   -0.4115   26.8137 H         1 FAD         0.4175
     59 H2B        19.4002    3.8970   26.9859 H         1 FAD        -0.0595
     60 H1B        19.7898    2.2057   29.4992 H         1 FAD         0.0778
     61 H8A        21.0350    5.2920   27.4870 H         1 FAD         0.1094
     62 H61A       22.6212    7.9848   31.2244 H         1 FAD         0.3861
     63 H62A       22.4402    7.7921   33.1112 H         1 FAD         0.3861
     64 H2A        20.7640    3.5760   33.7660 H         1 FAD         0.0165
     65 HN3        20.5432   -5.0668   12.5956 H         1 FAD         0.3312
     66 H6         15.3300   -0.3580   13.3370 H         1 FAD         0.1443
     67 HM71       13.7503    1.0953   14.0560 H         1 FAD         0.0409
     68 HM72       14.3431    2.6721   14.6799 H         1 FAD         0.0409
     69 HM73       13.8360    1.3857   15.8266 H         1 FAD         0.0409
     70 HM81       15.2979    3.0369   16.5527 H         1 FAD         0.0621
     71 HM82       17.0190    3.5502   16.5193 H         1 FAD         0.0621
     72 HM83       16.4427    2.4221   17.7929 H         1 FAD         0.0621
     73 H9         18.6390    1.2910   16.7230 H         1 FAD         0.2001
     74 H1'1       21.5903    0.2076   15.2038 H         1 FAD         0.1147
     75 H1'2       20.3307    1.0469   16.1710 H         1 FAD         0.1147
     76 H2'        21.4878   -1.7791   16.8058 H         1 FAD         0.0695
     77 HO2'       19.0616   -1.6741   17.3048 H         1 FAD         0.4018
     78 H3'        21.5298    1.0156   18.1516 H         1 FAD         0.0371
     79 HO3'       23.1120    0.8433   16.1939 H         1 FAD         0.3943
     80 H4'        22.7871   -1.7307   18.9541 H         1 FAD         0.0672
     81 HO4'       20.4189   -1.6490   19.5440 H         1 FAD         0.4610
     82 H5'1       24.2294    0.3444   19.2636 H         1 FAD         0.0425
     83 H5'2       22.8943    1.0550   20.2327 H         1 FAD         0.0425
@<TRIPOS>BOND
     1    1    2 2
     2    1    3 1
     3    1    4 1
     4    1   53 1
     5    4    5 1
     6    5    6 1
     7    5   54 1
     8    5   55 1
     9    6    7 1
    10    6    8 1
    11    6   56 1
    12    7   12 1
    13    8    9 1
    14    8   10 1
    15    8   57 1
    16    9   58 1
    17   10   11 1
    18   10   12 1
    19   10   59 1
    20   12   13 1
    21   12   60 1
    22   13   14 ar
    23   13   22 ar
    24   14   15 ar
    25   14   61 1
    26   15   16 ar
    27   16   17 ar
    28   16   22 ar
    29   17   18 1
    30   17   19 ar
    31   18   62 1
    32   18   63 1
    33   19   20 ar
    34   20   21 ar
    35   20   64 1
    36   21   22 ar
    37   23   24 ar
    38   23   40 ar
    39   24   25 2
    40   24   26 ar
    41   26   27 ar
    42   26   65 1
    43   27   28 2
    44   27   29 ar
    45   29   30 ar
    46   29   40 1
    47   30   31 ar
    48   31   32 ar
    49   31   38 ar
    50   32   33 ar
    51   32   66 1
    52   33   34 1
    53   33   35 ar
    54   34   67 1
    55   34   68 1
    56   34   69 1
    57   35   36 1
    58   35   37 ar
    59   36   70 1
    60   36   71 1
    61   36   72 1
    62   37   38 ar
    63   37   73 1
    64   38   39 ar
    65   39   40 ar
    66   39   41 1
    67   41   42 1
    68   41   74 1
    69   41   75 1
    70   42   43 1
    71   42   44 1
    72   42   76 1
    73   43   77 1
    74   44   45 1
    75   44   46 1
    76   44   78 1
    77   45   79 1
    78   46   47 1
    79   46   48 1
    80   46   80 1
    81   47   81 1
    82   48   49 1
    83   48   82 1
    84   48   83 1
    85   49   50 1
    86   50   51 2
    87   50   52 1
    88   50   53 1
@<TRIPOS>SUBSTRUCTURE
     1 FAD         1 GROUP   0 A     ****
@<TRIPOS>MOLECULE
[[5-(6-aminopurin-9-yl)-3-hydroxy-4-oxido-tetrahydrofuran-2-yl]methoxy-oxido-phosphoryl] [5-(7,8-dimethyl-2-oxido-4-oxo-benzo[g]pteridin-10-yl)-2,3,4-trihydroxy-pentyl] phosphate
   82    87     1     0     0
SMALL
USER_CHARGES

@<TRIPOS>ATOM
      1 PA         21.8380    0.8050   23.1700 P.3       1 FAD         1.5669
      2 O1A        21.3030   -0.5190   22.7220 O.2       1 FAD        -0.8777
      3 O2A        21.2420    1.9380   22.7450 O.3       1 FAD        -0.8777
      4 O5B        21.5190    0.6820   24.6440 O.3       1 FAD        -0.5711
      5 C5B        21.8970    1.6430   25.6850 C.3       1 FAD         0.1939
      6 C4B        20.9970    1.3300   26.9450 C.3       1 FAD         0.1170
      7 O4B        21.4600    2.2240   28.0530 O.3       1 FAD        -0.4192
      8 C3B        19.4600    1.6220   26.8060 C.3       1 FAD         0.0421
      9 O3B        18.6710    0.5790   27.2900 O.3       1 FAD        -0.6302
     10 C2B        19.2980    2.9730   27.5740 C.3       1 FAD         0.3681
     11 O2B        18.0040    3.1220   28.1030 O.3       1 FAD        -0.8642
     12 C1B        20.2760    2.7830   28.6990 C.3       1 FAD         0.2979
     13 N9A        20.8010    4.0200   29.2670 N.pl3     1 FAD        -0.6000
     14 C8A        21.1540    5.1530   28.5750 C.ar      1 FAD         0.5779
     15 N7A        21.6680    6.0970   29.3600 N.ar      1 FAD        -0.6229
     16 C5A        21.5630    5.5850   30.6310 C.ar      1 FAD        -0.1907
     17 C6A        21.9270    6.1470   31.9320 C.ar      1 FAD         0.6577
     18 N6A        22.3520    7.3730   32.0980 N.pl3     1 FAD        -0.9172
     19 N1A        21.5850    5.3620   32.9970 N.ar      1 FAD        -0.8157
     20 C2A        21.0280    4.1270   32.8470 C.ar      1 FAD         0.6127
     21 N3A        20.7580    3.4920   31.6950 N.ar      1 FAD        -0.6757
     22 C4A        21.0940    4.2440   30.6070 C.ar      1 FAD         0.5567
     23 N1         21.1130   -2.2310   14.3340 N.ar      1 FAD        -0.7832
     24 C2         21.3700   -3.3170   13.6190 C.ar      1 FAD         1.1315
     25 O2         22.4720   -3.7950   13.5580 O.3       1 FAD        -0.7064
     26 N3         20.3350   -4.0620   12.9920 N.ar      1 FAD        -0.8774
     27 C4         19.0640   -3.5450   12.8700 C.ar      1 FAD         0.6644
     28 O4         18.2010   -4.1990   12.3240 O.2       1 FAD        -0.7067
     29 C4X        18.8420   -2.2200   13.4310 C.ar      1 FAD         0.2448
     30 N5         17.6210   -1.6430   13.3240 N.ar      1 FAD        -0.5039
     31 C5X        17.4010   -0.5070   14.0540 C.ar      1 FAD         0.0320
     32 C6         16.0920    0.0300   14.0340 C.ar      1 FAD        -0.0646
     33 C7         15.7290    1.0490   14.8790 C.ar      1 FAD        -0.1576
     34 C7M        14.3190    1.5870   14.8590 C.3       1 FAD        -0.0280
     35 C8         16.6660    1.5470   15.8520 C.ar      1 FAD        -0.0369
     36 C8M        16.3340    2.7180   16.7390 C.3       1 FAD        -0.0546
     37 C9         17.9420    0.9810   15.9280 C.ar      1 FAD        -0.1807
     38 C9A        18.3310    0.0200   14.9920 C.ar      1 FAD         0.1754
     39 N10        19.6330   -0.5660   14.9940 N.pl3     1 FAD        -0.5868
     40 C10        19.8920   -1.6530   14.2710 C.ar      1 FAD         0.5612
     41 C1'        20.6850    0.0690   15.8130 C.3       1 FAD         0.2088
     42 C2'        21.0540   -0.7970   17.0450 C.3       1 FAD         0.0776
     43 O2'        19.8580   -1.0730   17.7680 O.3       1 FAD        -0.5952
     44 C3'        21.9860    0.0460   17.9030 C.3       1 FAD         0.1131
     45 O3'        23.1720    0.2940   17.1450 O.3       1 FAD        -0.5832
     46 C4'        22.3780   -0.7320   19.1670 C.3       1 FAD         0.1170
     47 O4'        21.2310   -1.0360   19.9620 O.3       1 FAD        -0.6661
     48 C5'        23.3750    0.1170   19.9180 C.3       1 FAD         0.1746
     49 O5'        23.8840   -0.6520   21.1830 O.3       1 FAD        -0.5847
     50 P          24.5070    0.1030   22.3450 P.3       1 FAD         1.5745
     51 O1P        24.9820   -0.9910   23.3090 O.2       1 FAD        -0.8662
     52 O2P        25.4370    1.0540   21.9500 O.3       1 FAD        -0.8662
     53 O3P        23.4730    0.8660   23.0320 O.3       1 FAD        -0.8044
     54 H51A       22.9631    1.5210   25.9270 H         1 FAD         0.0094
     55 H52A       21.7181    2.6659   25.3221 H         1 FAD         0.0094
     56 H4B        21.1215    0.2571   27.1533 H         1 FAD         0.0963
     57 H3B        19.0330    1.6103   25.7923 H         1 FAD         0.0459
     58 HO3A       18.7161   -0.4115   26.8137 H         1 FAD         0.4107
     59 H2B        19.4002    3.8970   26.9859 H         1 FAD        -0.0569
     60 H1B        19.7898    2.2057   29.4992 H         1 FAD         0.0715
     61 H8A        21.0350    5.2920   27.4870 H         1 FAD         0.1130
     62 H61A       22.6212    7.9848   31.2244 H         1 FAD         0.3842
     63 H62A       22.4402    7.7921   33.1112 H         1 FAD         0.3842
     64 H2A        20.7640    3.5760   33.7660 H         1 FAD         0.0139
     65 H6         15.3300   -0.3580   13.3370 H         1 FAD         0.1287
     66 HM71       13.7503    1.0953   14.0560 H         1 FAD         0.0238
     67 HM72       14.3431    2.6721   14.6799 H         1 FAD         0.0238
     68 HM73       13.8360    1.3857   15.8266 H         1 FAD         0.0238
     69 HM81       15.2979    3.0369   16.5527 H         1 FAD         0.0440
     70 HM82       17.0190    3.5502   16.5193 H         1 FAD         0.0440
     71 HM83       16.4427    2.4221   17.7929 H         1 FAD         0.0440
     72 H9         18.6390    1.2910   16.7230 H         1 FAD         0.1789
     73 H1'1       21.5903    0.2076   15.2038 H         1 FAD         0.0951
     74 H1'2       20.3307    1.0469   16.1710 H         1 FAD         0.0951
     75 H2'        21.4878   -1.7791   16.8058 H         1 FAD         0.0598
     76 HO2'       19.0616   -1.6741   17.3048 H         1 FAD         0.3842
     77 H3'        21.5298    1.0156   18.1516 H         1 FAD         0.0224
     78 HO3'       23.1120    0.8433   16.1939 H         1 FAD         0.4044
     79 H4'        22.7871   -1.7307   18.9541 H         1 FAD         0.0629
     80 HO4'       20.4189   -1.6490   19.5440 H         1 FAD         0.4503
     81 H5'1       24.2294    0.3444   19.2636 H         1 FAD         0.0412
     82 H5'2       22.8943    1.0550   20.2327 H         1 FAD         0.0412
@<TRIPOS>BOND
     1    1    2 2
     2    1    3 1
     3    1    4 1
     4    1   53 1
     5    4    5 1
     6    5    6 1
     7    5   54 1
     8    5   55 1
     9    6    7 1
    10    6    8 1
    11    6   56 1
    12    7   12 1
    13    8    9 1
    14    8   10 1
    15    8   57 1
    16    9   58 1
    17   10   11 1
    18   10   12 1
    19   10   59 1
    20   12   13 1
    21   12   60 1
    22   13   14 ar
    23   13   22 ar
    24   14   15 ar
    25   14   61 1
    26   15   16 ar
    27   16   17 ar
    28   16   22 ar
    29   17   18 1
    30   17   19 ar
    31   18   62 1
    32   18   63 1
    33   19   20 ar
    34   20   21 ar
    35   20   64 1
    36   21   22 ar
    37   23   24 ar
    38   23   40 ar
    39   24   25 1
    40   24   26 ar
    41   26   27 ar
    42   27   28 2
    43   27   29 ar
    44   29   30 ar
    45   29   40 1
    46   30   31 ar
    47   31   32 ar
    48   31   38 ar
    49   32   33 ar
    50   32   65 1
    51   33   34 1
    52   33   35 ar
    53   34   66 1
    54   34   67 1
    55   34   68 1
    56   35   36 1
    57   35   37 ar
    58   36   69 1
    59   36   70 1
    60   36   71 1
    61   37   38 ar
    62   37   72 1
    63   38   39 ar
    64   39   40 ar
    65   39   41 1
    66   41   42 1
    67   41   73 1
    68   41   74 1
    69   42   43 1
    70   42   44 1
    71   42   75 1
    72   43   76 1
    73   44   45 1
    74   44   46 1
    75   44   77 1
    76   45   78 1
    77   46   47 1
    78   46   48 1
    79   46   79 1
    80   47   80 1
    81   48   49 1
    82   48   81 1
    83   48   82 1
    84   49   50 1
    85   50   51 2
    86   50   52 1
    87   50   53 1
@<TRIPOS>SUBSTRUCTURE
     1 FAD         1 GROUP   0 A     ****
@<TRIPOS>MOLECULE
[[5-(6-aminopurin-9-yl)-4-hydroxy-3-oxido-tetrahydrofuran-2-yl]methoxy-oxido-phosphoryl] [5-(7,8-dimethyl-2,4-dioxo-benzo[g]pteridin-10-yl)-2,3,4-trihydroxy-pentyl] phosphate
   83    88     1     0     0
SMALL
USER_CHARGES

@<TRIPOS>ATOM
      1 PA         21.8380    0.8050   23.1700 P.3       1 FAD         1.5622
      2 O1A        21.3030   -0.5190   22.7220 O.2       1 FAD        -0.8657
      3 O2A        21.2420    1.9380   22.7450 O.3       1 FAD        -0.8657
      4 O5B        21.5190    0.6820   24.6440 O.3       1 FAD        -0.5881
      5 C5B        21.8970    1.6430   25.6850 C.3       1 FAD         0.2057
      6 C4B        20.9970    1.3300   26.9450 C.3       1 FAD         0.0452
      7 O4B        21.4600    2.2240   28.0530 O.3       1 FAD        -0.4330
      8 C3B        19.4600    1.6220   26.8060 C.3       1 FAD         0.3777
      9 O3B        18.6710    0.5790   27.2900 O.3       1 FAD        -0.8540
     10 C2B        19.2980    2.9730   27.5740 C.3       1 FAD         0.0085
     11 O2B        18.0040    3.1220   28.1030 O.3       1 FAD        -0.6398
     12 C1B        20.2760    2.7830   28.6990 C.3       1 FAD         0.4093
     13 N9A        20.8010    4.0200   29.2670 N.pl3     1 FAD        -0.6453
     14 C8A        21.1540    5.1530   28.5750 C.ar      1 FAD         0.5716
     15 N7A        21.6680    6.0970   29.3600 N.ar      1 FAD        -0.6098
     16 C5A        21.5630    5.5850   30.6310 C.ar      1 FAD        -0.2017
     17 C6A        21.9270    6.1470   31.9320 C.ar      1 FAD         0.6765
     18 N6A        22.3520    7.3730   32.0980 N.pl3     1 FAD        -0.9199
     19 N1A        21.5850    5.3620   32.9970 N.ar      1 FAD        -0.8083
     20 C2A        21.0280    4.1270   32.8470 C.ar      1 FAD         0.6287
     21 N3A        20.7580    3.4920   31.6950 N.ar      1 FAD        -0.6843
     22 C4A        21.0940    4.2440   30.6070 C.ar      1 FAD         0.5593
     23 N1         21.1130   -2.2310   14.3340 N.ar      1 FAD        -0.6926
     24 C2         21.3700   -3.3170   13.6190 C.ar      1 FAD         0.8544
     25 O2         22.4720   -3.7950   13.5580 O.2       1 FAD        -0.6188
     26 N3         20.3350   -4.0620   12.9920 N.am      1 FAD        -0.6224
     27 C4         19.0640   -3.5450   12.8700 C.ar      1 FAD         0.6347
     28 O4         18.2010   -4.1990   12.3240 O.2       1 FAD        -0.6204
     29 C4X        18.8420   -2.2200   13.4310 C.ar      1 FAD         0.2146
     30 N5         17.6210   -1.6430   13.3240 N.ar      1 FAD        -0.4254
     31 C5X        17.4010   -0.5070   14.0540 C.ar      1 FAD         0.0124
     32 C6         16.0920    0.0300   14.0340 C.ar      1 FAD        -0.0591
     33 C7         15.7290    1.0490   14.8790 C.ar      1 FAD        -0.1172
     34 C7M        14.3190    1.5870   14.8590 C.3       1 FAD        -0.0472
     35 C8         16.6660    1.5470   15.8520 C.ar      1 FAD         0.0162
     36 C8M        16.3340    2.7180   16.7390 C.3       1 FAD        -0.0815
     37 C9         17.9420    0.9810   15.9280 C.ar      1 FAD        -0.1724
     38 C9A        18.3310    0.0200   14.9920 C.ar      1 FAD         0.1756
     39 N10        19.6330   -0.5660   14.9940 N.pl3     1 FAD        -0.5298
     40 C10        19.8920   -1.6530   14.2710 C.ar      1 FAD         0.6293
     41 C1'        20.6850    0.0690   15.8130 C.3       1 FAD         0.1850
     42 C2'        21.0540   -0.7970   17.0450 C.3       1 FAD         0.0828
     43 O2'        19.8580   -1.0730   17.7680 O.3       1 FAD        -0.6165
     44 C3'        21.9860    0.0460   17.9030 C.3       1 FAD         0.0985
     45 O3'        23.1720    0.2940   17.1450 O.3       1 FAD        -0.5765
     46 C4'        22.3780   -0.7320   19.1670 C.3       1 FAD         0.1410
     47 O4'        21.2310   -1.0360   19.9620 O.3       1 FAD        -0.6713
     48 C5'        23.3750    0.1170   19.9180 C.3       1 FAD         0.1488
     49 O5'        23.8840   -0.6520   21.1830 O.3       1 FAD        -0.5717
     50 P          24.5070    0.1030   22.3450 P.3       1 FAD         1.5850
     51 O1P        24.9820   -0.9910   23.3090 O.2       1 FAD        -0.8901
     52 O2P        25.4370    1.0540   21.9500 O.3       1 FAD        -0.8901
     53 O3P        23.4730    0.8660   23.0320 O.3       1 FAD        -0.7939
     54 H51A       22.9631    1.5210   25.9270 H         1 FAD         0.0301
     55 H52A       21.7181    2.6659   25.3221 H         1 FAD         0.0301
     56 H4B        21.1215    0.2571   27.1533 H         1 FAD         0.0669
     57 H3B        19.0330    1.6103   25.7923 H         1 FAD        -0.0671
     58 H2B        19.4002    3.8970   26.9859 H         1 FAD         0.0303
     59 HO2A       17.1481    3.2725   27.4286 H         1 FAD         0.4358
     60 H1B        19.7898    2.2057   29.4992 H         1 FAD         0.0729
     61 H8A        21.0350    5.2920   27.4870 H         1 FAD         0.1124
     62 H61A       22.6212    7.9848   31.2244 H         1 FAD         0.3947
     63 H62A       22.4402    7.7921   33.1112 H         1 FAD         0.3947
     64 H2A        20.7640    3.5760   33.7660 H         1 FAD         0.0243
     65 HN3        20.5432   -5.0668   12.5956 H         1 FAD         0.3292
     66 H6         15.3300   -0.3580   13.3370 H         1 FAD         0.1423
     67 HM71       13.7503    1.0953   14.0560 H         1 FAD         0.0431
     68 HM72       14.3431    2.6721   14.6799 H         1 FAD         0.0431
     69 HM73       13.8360    1.3857   15.8266 H         1 FAD         0.0431
     70 HM81       15.2979    3.0369   16.5527 H         1 FAD         0.0719
     71 HM82       17.0190    3.5502   16.5193 H         1 FAD         0.0719
     72 HM83       16.4427    2.4221   17.7929 H         1 FAD         0.0719
     73 H9         18.6390    1.2910   16.7230 H         1 FAD         0.2042
     74 H1'1       21.5903    0.2076   15.2038 H         1 FAD         0.1125
     75 H1'2       20.3307    1.0469   16.1710 H         1 FAD         0.1125
     76 H2'        21.4878   -1.7791   16.8058 H         1 FAD         0.0755
     77 HO2'       19.0616   -1.6741   17.3048 H         1 FAD         0.4000
     78 H3'        21.5298    1.0156   18.1516 H         1 FAD         0.0458
     79 HO3'       23.1120    0.8433   16.1939 H         1 FAD         0.3902
     80 H4'        22.7871   -1.7307   18.9541 H         1 FAD         0.0514
     81 HO4'       20.4189   -1.6490   19.5440 H         1 FAD         0.4650
     82 H5'1       24.2294    0.3444   19.2636 H         1 FAD         0.0455
     83 H5'2       22.8943    1.0550   20.2327 H         1 FAD         0.0455
@<TRIPOS>BOND
     1    1    2 2
     2    1    3 1
     3    1    4 1
     4    1   53 1
     5    4    5 1
     6    5    6 1
     7    5   54 1
     8    5   55 1
     9    6    7 1
    10    6    8 1
    11    6   56 1
    12    7   12 1
    13    8    9 1
    14    8   10 1
    15    8   57 1
    16   10   11 1
    17   10   12 1
    18   10   58 1
    19   11   59 1
    20   12   13 1
    21   12   60 1
    22   13   14 ar
    23   13   22 ar
    24   14   15 ar
    25   14   61 1
    26   15   16 ar
    27   16   17 ar
    28   16   22 ar
    29   17   18 1
    30   17   19 ar
    31   18   62 1
    32   18   63 1
    33   19   20 ar
    34   20   21 ar
    35   20   64 1
    36   21   22 ar
    37   23   24 ar
    38   23   40 ar
    39   24   25 2
    40   24   26 ar
    41   26   27 ar
    42   26   65 1
    43   27   28 2
    44   27   29 ar
    45   29   30 ar
    46   29   40 1
    47   30   31 ar
    48   31   32 ar
    49   31   38 ar
    50   32   33 ar
    51   32   66 1
    52   33   34 1
    53   33   35 ar
    54   34   67 1
    55   34   68 1
    56   34   69 1
    57   35   36 1
    58   35   37 ar
    59   36   70 1
    60   36   71 1
    61   36   72 1
    62   37   38 ar
    63   37   73 1
    64   38   39 ar
    65   39   40 ar
    66   39   41 1
    67   41   42 1
    68   41   74 1
    69   41   75 1
    70   42   43 1
    71   42   44 1
    72   42   76 1
    73   43   77 1
    74   44   45 1
    75   44   46 1
    76   44   78 1
    77   45   79 1
    78   46   47 1
    79   46   48 1
    80   46   80 1
    81   47   81 1
    82   48   49 1
    83   48   82 1
    84   48   83 1
    85   49   50 1
    86   50   51 2
    87   50   52 1
    88   50   53 1
@<TRIPOS>SUBSTRUCTURE
     1 FAD         1 GROUP   0 A     ****
@<TRIPOS>MOLECULE
[[5-(6-aminopurin-9-yl)-4-hydroxy-3-oxido-tetrahydrofuran-2-yl]methoxy-oxido-phosphoryl] [5-(7,8-dimethyl-2-oxido-4-oxo-benzo[g]pteridin-10-yl)-2,3,4-trihydroxy-pentyl] phosphate
   82    87     1     0     0
SMALL
USER_CHARGES

@<TRIPOS>ATOM
      1 PA         21.8380    0.8050   23.1700 P.3       1 FAD         1.5652
      2 O1A        21.3030   -0.5190   22.7220 O.2       1 FAD        -0.8701
      3 O2A        21.2420    1.9380   22.7450 O.3       1 FAD        -0.8701
      4 O5B        21.5190    0.6820   24.6440 O.3       1 FAD        -0.5893
      5 C5B        21.8970    1.6430   25.6850 C.3       1 FAD         0.2105
      6 C4B        20.9970    1.3300   26.9450 C.3       1 FAD         0.0454
      7 O4B        21.4600    2.2240   28.0530 O.3       1 FAD        -0.4319
      8 C3B        19.4600    1.6220   26.8060 C.3       1 FAD         0.3773
      9 O3B        18.6710    0.5790   27.2900 O.3       1 FAD        -0.8435
     10 C2B        19.2980    2.9730   27.5740 C.3       1 FAD         0.0059
     11 O2B        18.0040    3.1220   28.1030 O.3       1 FAD        -0.6458
     12 C1B        20.2760    2.7830   28.6990 C.3       1 FAD         0.4116
     13 N9A        20.8010    4.0200   29.2670 N.pl3     1 FAD        -0.6407
     14 C8A        21.1540    5.1530   28.5750 C.ar      1 FAD         0.5751
     15 N7A        21.6680    6.0970   29.3600 N.ar      1 FAD        -0.6142
     16 C5A        21.5630    5.5850   30.6310 C.ar      1 FAD        -0.1954
     17 C6A        21.9270    6.1470   31.9320 C.ar      1 FAD         0.6695
     18 N6A        22.3520    7.3730   32.0980 N.pl3     1 FAD        -0.9178
     19 N1A        21.5850    5.3620   32.9970 N.ar      1 FAD        -0.8104
     20 C2A        21.0280    4.1270   32.8470 C.ar      1 FAD         0.6228
     21 N3A        20.7580    3.4920   31.6950 N.ar      1 FAD        -0.6797
     22 C4A        21.0940    4.2440   30.6070 C.ar      1 FAD         0.5533
     23 N1         21.1130   -2.2310   14.3340 N.ar      1 FAD        -0.7889
     24 C2         21.3700   -3.3170   13.6190 C.ar      1 FAD         1.1316
     25 O2         22.4720   -3.7950   13.5580 O.3       1 FAD        -0.7160
     26 N3         20.3350   -4.0620   12.9920 N.ar      1 FAD        -0.8796
     27 C4         19.0640   -3.5450   12.8700 C.ar      1 FAD         0.6637
     28 O4         18.2010   -4.1990   12.3240 O.2       1 FAD        -0.7096
     29 C4X        18.8420   -2.2200   13.4310 C.ar      1 FAD         0.2401
     30 N5         17.6210   -1.6430   13.3240 N.ar      1 FAD        -0.5006
     31 C5X        17.4010   -0.5070   14.0540 C.ar      1 FAD         0.0275
     32 C6         16.0920    0.0300   14.0340 C.ar      1 FAD        -0.0693
     33 C7         15.7290    1.0490   14.8790 C.ar      1 FAD        -0.1524
     34 C7M        14.3190    1.5870   14.8590 C.3       1 FAD        -0.0297
     35 C8         16.6660    1.5470   15.8520 C.ar      1 FAD        -0.0235
     36 C8M        16.3340    2.7180   16.7390 C.3       1 FAD        -0.0640
     37 C9         17.9420    0.9810   15.9280 C.ar      1 FAD        -0.1821
     38 C9A        18.3310    0.0200   14.9920 C.ar      1 FAD         0.1736
     39 N10        19.6330   -0.5660   14.9940 N.pl3     1 FAD        -0.5884
     40 C10        19.8920   -1.6530   14.2710 C.ar      1 FAD         0.5637
     41 C1'        20.6850    0.0690   15.8130 C.3       1 FAD         0.2083
     42 C2'        21.0540   -0.7970   17.0450 C.3       1 FAD         0.0769
     43 O2'        19.8580   -1.0730   17.7680 O.3       1 FAD        -0.5918
     44 C3'        21.9860    0.0460   17.9030 C.3       1 FAD         0.1103
     45 O3'        23.1720    0.2940   17.1450 O.3       1 FAD        -0.5907
     46 C4'        22.3780   -0.7320   19.1670 C.3       1 FAD         0.1383
     47 O4'        21.2310   -1.0360   19.9620 O.3       1 FAD        -0.6591
     48 C5'        23.3750    0.1170   19.9180 C.3       1 FAD         0.1441
     49 O5'        23.8840   -0.6520   21.1830 O.3       1 FAD        -0.5762
     50 P          24.5070    0.1030   22.3450 P.3       1 FAD         1.5818
     51 O1P        24.9820   -0.9910   23.3090 O.2       1 FAD        -0.8917
     52 O2P        25.4370    1.0540   21.9500 O.3       1 FAD        -0.8917
     53 O3P        23.4730    0.8660   23.0320 O.3       1 FAD        -0.7933
     54 H51A       22.9631    1.5210   25.9270 H         1 FAD         0.0277
     55 H52A       21.7181    2.6659   25.3221 H         1 FAD         0.0277
     56 H4B        21.1215    0.2571   27.1533 H         1 FAD         0.0701
     57 H3B        19.0330    1.6103   25.7923 H         1 FAD        -0.0682
     58 H2B        19.4002    3.8970   26.9859 H         1 FAD         0.0251
     59 HO2A       17.1481    3.2725   27.4286 H         1 FAD         0.4428
     60 H1B        19.7898    2.2057   29.4992 H         1 FAD         0.0713
     61 H8A        21.0350    5.2920   27.4870 H         1 FAD         0.1144
     62 H61A       22.6212    7.9848   31.2244 H         1 FAD         0.3903
     63 H62A       22.4402    7.7921   33.1112 H         1 FAD         0.3903
     64 H2A        20.7640    3.5760   33.7660 H         1 FAD         0.0216
     65 H6         15.3300   -0.3580   13.3370 H         1 FAD         0.1270
     66 HM71       13.7503    1.0953   14.0560 H         1 FAD         0.0260
     67 HM72       14.3431    2.6721   14.6799 H         1 FAD         0.0260
     68 HM73       13.8360    1.3857   15.8266 H         1 FAD         0.0260
     69 HM81       15.2979    3.0369   16.5527 H         1 FAD         0.0535
     70 HM82       17.0190    3.5502   16.5193 H         1 FAD         0.0535
     71 HM83       16.4427    2.4221   17.7929 H         1 FAD         0.0535
     72 H9         18.6390    1.2910   16.7230 H         1 FAD         0.1771
     73 H1'1       21.5903    0.2076   15.2038 H         1 FAD         0.0931
     74 H1'2       20.3307    1.0469   16.1710 H         1 FAD         0.0931
     75 H2'        21.4878   -1.7791   16.8058 H         1 FAD         0.0633
     76 HO2'       19.0616   -1.6741   17.3048 H         1 FAD         0.3831
     77 H3'        21.5298    1.0156   18.1516 H         1 FAD         0.0306
     78 HO3'       23.1120    0.8433   16.1939 H         1 FAD         0.4049
     79 H4'        22.7871   -1.7307   18.9541 H         1 FAD         0.0459
     80 HO4'       20.4189   -1.6490   19.5440 H         1 FAD         0.4539
     81 H5'1       24.2294    0.3444   19.2636 H         1 FAD         0.0438
     82 H5'2       22.8943    1.0550   20.2327 H         1 FAD         0.0438
@<TRIPOS>BOND
     1    1    2 2
     2    1    3 1
     3    1    4 1
     4    1   53 1
     5    4    5 1
     6    5    6 1
     7    5   54 1
     8    5   55 1
     9    6    7 1
    10    6    8 1
    11    6   56 1
    12    7   12 1
    13    8    9 1
    14    8   10 1
    15    8   57 1
    16   10   11 1
    17   10   12 1
    18   10   58 1
    19   11   59 1
    20   12   13 1
    21   12   60 1
    22   13   14 ar
    23   13   22 ar
    24   14   15 ar
    25   14   61 1
    26   15   16 ar
    27   16   17 ar
    28   16   22 ar
    29   17   18 1
    30   17   19 ar
    31   18   62 1
    32   18   63 1
    33   19   20 ar
    34   20   21 ar
    35   20   64 1
    36   21   22 ar
    37   23   24 ar
    38   23   40 ar
    39   24   25 1
    40   24   26 ar
    41   26   27 ar
    42   27   28 2
    43   27   29 ar
    44   29   30 ar
    45   29   40 1
    46   30   31 ar
    47   31   32 ar
    48   31   38 ar
    49   32   33 ar
    50   32   65 1
    51   33   34 1
    52   33   35 ar
    53   34   66 1
    54   34   67 1
    55   34   68 1
    56   35   36 1
    57   35   37 ar
    58   36   69 1
    59   36   70 1
    60   36   71 1
    61   37   38 ar
    62   37   72 1
    63   38   39 ar
    64   39   40 ar
    65   39   41 1
    66   41   42 1
    67   41   73 1
    68   41   74 1
    69   42   43 1
    70   42   44 1
    71   42   75 1
    72   43   76 1
    73   44   45 1
    74   44   46 1
    75   44   77 1
    76   45   78 1
    77   46   47 1
    78   46   48 1
    79   46   79 1
    80   47   80 1
    81   48   49 1
    82   48   81 1
    83   48   82 1
    84   49   50 1
    85   50   51 2
    86   50   52 1
    87   50   53 1
@<TRIPOS>SUBSTRUCTURE
     1 FAD         1 GROUP   0 A     ****
@<TRIPOS>MOLECULE
[[5-(6-azanidylpurin-9-yl)-3,4-dihydroxy-tetrahydrofuran-2-yl]methoxy-oxido-phosphoryl] [5-(7,8-dimethyl-2,4-dioxo-benzo[g]pteridin-10-yl)-2,3,4-trihydroxy-pentyl] phosphate
   83    88     1     0     0
SMALL
USER_CHARGES

@<TRIPOS>ATOM
      1 PA         21.8380    0.8050   23.1700 P.3       1 FAD         1.5440
      2 O1A        21.3030   -0.5190   22.7220 O.2       1 FAD        -0.8500
      3 O2A        21.2420    1.9380   22.7450 O.3       1 FAD        -0.8500
      4 O5B        21.5190    0.6820   24.6440 O.3       1 FAD        -0.5661
      5 C5B        21.8970    1.6430   25.6850 C.3       1 FAD         0.1760
      6 C4B        20.9970    1.3300   26.9450 C.3       1 FAD         0.1061
      7 O4B        21.4600    2.2240   28.0530 O.3       1 FAD        -0.4159
      8 C3B        19.4600    1.6220   26.8060 C.3       1 FAD         0.0905
      9 O3B        18.6710    0.5790   27.2900 O.3       1 FAD        -0.6115
     10 C2B        19.2980    2.9730   27.5740 C.3       1 FAD         0.0542
     11 O2B        18.0040    3.1220   28.1030 O.3       1 FAD        -0.5928
     12 C1B        20.2760    2.7830   28.6990 C.3       1 FAD         0.4419
     13 N9A        20.8010    4.0200   29.2670 N.pl3     1 FAD        -0.7154
     14 C8A        21.1540    5.1530   28.5750 C.ar      1 FAD         0.4587
     15 N7A        21.6680    6.0970   29.3600 N.ar      1 FAD        -0.5485
     16 C5A        21.5630    5.5850   30.6310 C.ar      1 FAD        -0.3074
     17 C6A        21.9270    6.1470   31.9320 C.ar      1 FAD         0.6835
     18 N6A        22.3520    7.3730   32.0980 N.2       1 FAD        -0.7962
     19 N1A        21.5850    5.3620   32.9970 N.ar      1 FAD        -0.8457
     20 C2A        21.0280    4.1270   32.8470 C.ar      1 FAD         0.6681
     21 N3A        20.7580    3.4920   31.6950 N.ar      1 FAD        -0.8727
     22 C4A        21.0940    4.2440   30.6070 C.ar      1 FAD         0.5951
     23 N1         21.1130   -2.2310   14.3340 N.ar      1 FAD        -0.6937
     24 C2         21.3700   -3.3170   13.6190 C.ar      1 FAD         0.8548
     25 O2         22.4720   -3.7950   13.5580 O.2       1 FAD        -0.6122
     26 N3         20.3350   -4.0620   12.9920 N.am      1 FAD        -0.6224
     27 C4         19.0640   -3.5450   12.8700 C.ar      1 FAD         0.6349
     28 O4         18.2010   -4.1990   12.3240 O.2       1 FAD        -0.6144
     29 C4X        18.8420   -2.2200   13.4310 C.ar      1 FAD         0.2208
     30 N5         17.6210   -1.6430   13.3240 N.ar      1 FAD        -0.4254
     31 C5X        17.4010   -0.5070   14.0540 C.ar      1 FAD         0.0167
     32 C6         16.0920    0.0300   14.0340 C.ar      1 FAD        -0.0553
     33 C7         15.7290    1.0490   14.8790 C.ar      1 FAD        -0.1185
     34 C7M        14.3190    1.5870   14.8590 C.3       1 FAD        -0.0471
     35 C8         16.6660    1.5470   15.8520 C.ar      1 FAD         0.0055
     36 C8M        16.3340    2.7180   16.7390 C.3       1 FAD        -0.0744
     37 C9         17.9420    0.9810   15.9280 C.ar      1 FAD        -0.1701
     38 C9A        18.3310    0.0200   14.9920 C.ar      1 FAD         0.1749
     39 N10        19.6330   -0.5660   14.9940 N.pl3     1 FAD        -0.5314
     40 C10        19.8920   -1.6530   14.2710 C.ar      1 FAD         0.6280
     41 C1'        20.6850    0.0690   15.8130 C.3       1 FAD         0.1859
     42 C2'        21.0540   -0.7970   17.0450 C.3       1 FAD         0.0807
     43 O2'        19.8580   -1.0730   17.7680 O.3       1 FAD        -0.6152
     44 C3'        21.9860    0.0460   17.9030 C.3       1 FAD         0.0960
     45 O3'        23.1720    0.2940   17.1450 O.3       1 FAD        -0.5766
     46 C4'        22.3780   -0.7320   19.1670 C.3       1 FAD         0.1406
     47 O4'        21.2310   -1.0360   19.9620 O.3       1 FAD        -0.6679
     48 C5'        23.3750    0.1170   19.9180 C.3       1 FAD         0.1455
     49 O5'        23.8840   -0.6520   21.1830 O.3       1 FAD        -0.5761
     50 P          24.5070    0.1030   22.3450 P.3       1 FAD         1.5774
     51 O1P        24.9820   -0.9910   23.3090 O.2       1 FAD        -0.8830
     52 O2P        25.4370    1.0540   21.9500 O.3       1 FAD        -0.8830
     53 O3P        23.4730    0.8660   23.0320 O.3       1 FAD        -0.7935
     54 H51A       22.9631    1.5210   25.9270 H         1 FAD         0.0343
     55 H52A       21.7181    2.6659   25.3221 H         1 FAD         0.0343
     56 H4B        21.1215    0.2571   27.1533 H         1 FAD         0.1023
     57 H3B        19.0330    1.6103   25.7923 H         1 FAD         0.0781
     58 HO3A       18.7161   -0.4115   26.8137 H         1 FAD         0.4097
     59 H2B        19.4002    3.8970   26.9859 H         1 FAD         0.0766
     60 HO2A       17.1481    3.2725   27.4286 H         1 FAD         0.4014
     61 H1B        19.7898    2.2057   29.4992 H         1 FAD         0.0880
     62 H8A        21.0350    5.2920   27.4870 H         1 FAD         0.0795
     63 H62A       22.6212    7.9848   31.2244 H         1 FAD         0.3164
     64 H2A        20.7640    3.5760   33.7660 H         1 FAD        -0.0205
     65 HN3        20.5432   -5.0668   12.5956 H         1 FAD         0.3312
     66 H6         15.3300   -0.3580   13.3370 H         1 FAD         0.1454
     67 HM71       13.7503    1.0953   14.0560 H         1 FAD         0.0428
     68 HM72       14.3431    2.6721   14.6799 H         1 FAD         0.0428
     69 HM73       13.8360    1.3857   15.8266 H         1 FAD         0.0428
     70 HM81       15.2979    3.0369   16.5527 H         1 FAD         0.0651
     71 HM82       17.0190    3.5502   16.5193 H         1 FAD         0.0651
     72 HM83       16.4427    2.4221   17.7929 H         1 FAD         0.0651
     73 H9         18.6390    1.2910   16.7230 H         1 FAD         0.2018
     74 H1'1       21.5903    0.2076   15.2038 H         1 FAD         0.1112
     75 H1'2       20.3307    1.0469   16.1710 H         1 FAD         0.1112
     76 H2'        21.4878   -1.7791   16.8058 H         1 FAD         0.0754
     77 HO2'       19.0616   -1.6741   17.3048 H         1 FAD         0.4020
     78 H3'        21.5298    1.0156   18.1516 H         1 FAD         0.0480
     79 HO3'       23.1120    0.8433   16.1939 H         1 FAD         0.3932
     80 H4'        22.7871   -1.7307   18.9541 H         1 FAD         0.0509
     81 HO4'       20.4189   -1.6490   19.5440 H         1 FAD         0.4596
     82 H5'1       24.2294    0.3444   19.2636 H         1 FAD         0.0496
     83 H5'2       22.8943    1.0550   20.2327 H         1 FAD         0.0496
@<TRIPOS>BOND
     1    1    2 2
     2    1    3 1
     3    1    4 1
     4    1   53 1
     5    4    5 1
     6    5    6 1
     7    5   54 1
     8    5   55 1
     9    6    7 1
    10    6    8 1
    11    6   56 1
    12    7   12 1
    13    8    9 1
    14    8   10 1
    15    8   57 1
    16    9   58 1
    17   10   11 1
    18   10   12 1
    19   10   59 1
    20   11   60 1
    21   12   13 1
    22   12   61 1
    23   13   14 ar
    24   13   22 ar
    25   14   15 ar
    26   14   62 1
    27   15   16 ar
    28   16   17 ar
    29   16   22 ar
    30   17   18 1
    31   17   19 ar
    32   18   63 1
    33   19   20 ar
    34   20   21 ar
    35   20   64 1
    36   21   22 ar
    37   23   24 ar
    38   23   40 ar
    39   24   25 2
    40   24   26 ar
    41   26   27 ar
    42   26   65 1
    43   27   28 2
    44   27   29 ar
    45   29   30 ar
    46   29   40 1
    47   30   31 ar
    48   31   32 ar
    49   31   38 ar
    50   32   33 ar
    51   32   66 1
    52   33   34 1
    53   33   35 ar
    54   34   67 1
    55   34   68 1
    56   34   69 1
    57   35   36 1
    58   35   37 ar
    59   36   70 1
    60   36   71 1
    61   36   72 1
    62   37   38 ar
    63   37   73 1
    64   38   39 ar
    65   39   40 ar
    66   39   41 1
    67   41   42 1
    68   41   74 1
    69   41   75 1
    70   42   43 1
    71   42   44 1
    72   42   76 1
    73   43   77 1
    74   44   45 1
    75   44   46 1
    76   44   78 1
    77   45   79 1
    78   46   47 1
    79   46   48 1
    80   46   80 1
    81   47   81 1
    82   48   49 1
    83   48   82 1
    84   48   83 1
    85   49   50 1
    86   50   51 2
    87   50   52 1
    88   50   53 1
@<TRIPOS>SUBSTRUCTURE
     1 FAD         1 GROUP   0 A     ****
@<TRIPOS>MOLECULE
[[5-(6-azanidylpurin-9-yl)-3,4-dihydroxy-tetrahydrofuran-2-yl]methoxy-oxido-phosphoryl] [5-(7,8-dimethyl-2-oxido-4-oxo-benzo[g]pteridin-10-yl)-2,3,4-trihydroxy-pentyl] phosphate
   82    87     1     0     0
SMALL
USER_CHARGES

@<TRIPOS>ATOM
      1 PA         21.8380    0.8050   23.1700 P.3       1 FAD         1.5493
      2 O1A        21.3030   -0.5190   22.7220 O.2       1 FAD        -0.8591
      3 O2A        21.2420    1.9380   22.7450 O.3       1 FAD        -0.8591
      4 O5B        21.5190    0.6820   24.6440 O.3       1 FAD        -0.5666
      5 C5B        21.8970    1.6430   25.6850 C.3       1 FAD         0.1781
      6 C4B        20.9970    1.3300   26.9450 C.3       1 FAD         0.1005
      7 O4B        21.4600    2.2240   28.0530 O.3       1 FAD        -0.4162
      8 C3B        19.4600    1.6220   26.8060 C.3       1 FAD         0.0936
      9 O3B        18.6710    0.5790   27.2900 O.3       1 FAD        -0.6021
     10 C2B        19.2980    2.9730   27.5740 C.3       1 FAD         0.0563
     11 O2B        18.0040    3.1220   28.1030 O.3       1 FAD        -0.5939
     12 C1B        20.2760    2.7830   28.6990 C.3       1 FAD         0.4349
     13 N9A        20.8010    4.0200   29.2670 N.pl3     1 FAD        -0.7137
     14 C8A        21.1540    5.1530   28.5750 C.ar      1 FAD         0.4678
     15 N7A        21.6680    6.0970   29.3600 N.ar      1 FAD        -0.5558
     16 C5A        21.5630    5.5850   30.6310 C.ar      1 FAD        -0.3063
     17 C6A        21.9270    6.1470   31.9320 C.ar      1 FAD         0.6858
     18 N6A        22.3520    7.3730   32.0980 N.2       1 FAD        -0.8061
     19 N1A        21.5850    5.3620   32.9970 N.ar      1 FAD        -0.8527
     20 C2A        21.0280    4.1270   32.8470 C.ar      1 FAD         0.6662
     21 N3A        20.7580    3.4920   31.6950 N.ar      1 FAD        -0.8693
     22 C4A        21.0940    4.2440   30.6070 C.ar      1 FAD         0.5897
     23 N1         21.1130   -2.2310   14.3340 N.ar      1 FAD        -0.7953
     24 C2         21.3700   -3.3170   13.6190 C.ar      1 FAD         1.1331
     25 O2         22.4720   -3.7950   13.5580 O.3       1 FAD        -0.7129
     26 N3         20.3350   -4.0620   12.9920 N.ar      1 FAD        -0.8758
     27 C4         19.0640   -3.5450   12.8700 C.ar      1 FAD         0.6636
     28 O4         18.2010   -4.1990   12.3240 O.2       1 FAD        -0.7050
     29 C4X        18.8420   -2.2200   13.4310 C.ar      1 FAD         0.2448
     30 N5         17.6210   -1.6430   13.3240 N.ar      1 FAD        -0.5000
     31 C5X        17.4010   -0.5070   14.0540 C.ar      1 FAD         0.0328
     32 C6         16.0920    0.0300   14.0340 C.ar      1 FAD        -0.0661
     33 C7         15.7290    1.0490   14.8790 C.ar      1 FAD        -0.1537
     34 C7M        14.3190    1.5870   14.8590 C.3       1 FAD        -0.0296
     35 C8         16.6660    1.5470   15.8520 C.ar      1 FAD        -0.0335
     36 C8M        16.3340    2.7180   16.7390 C.3       1 FAD        -0.0572
     37 C9         17.9420    0.9810   15.9280 C.ar      1 FAD        -0.1818
     38 C9A        18.3310    0.0200   14.9920 C.ar      1 FAD         0.1725
     39 N10        19.6330   -0.5660   14.9940 N.pl3     1 FAD        -0.5881
     40 C10        19.8920   -1.6530   14.2710 C.ar      1 FAD         0.5638
     41 C1'        20.6850    0.0690   15.8130 C.3       1 FAD         0.2056
     42 C2'        21.0540   -0.7970   17.0450 C.3       1 FAD         0.0776
     43 O2'        19.8580   -1.0730   17.7680 O.3       1 FAD        -0.5940
     44 C3'        21.9860    0.0460   17.9030 C.3       1 FAD         0.1024
     45 O3'        23.1720    0.2940   17.1450 O.3       1 FAD        -0.5929
     46 C4'        22.3780   -0.7320   19.1670 C.3       1 FAD         0.1407
     47 O4'        21.2310   -1.0360   19.9620 O.3       1 FAD        -0.6593
     48 C5'        23.3750    0.1170   19.9180 C.3       1 FAD         0.1380
     49 O5'        23.8840   -0.6520   21.1830 O.3       1 FAD        -0.5789
     50 P          24.5070    0.1030   22.3450 P.3       1 FAD         1.5739
     51 O1P        24.9820   -0.9910   23.3090 O.2       1 FAD        -0.8831
     52 O2P        25.4370    1.0540   21.9500 O.3       1 FAD        -0.8831
     53 O3P        23.4730    0.8660   23.0320 O.3       1 FAD        -0.7899
     54 H51A       22.9631    1.5210   25.9270 H         1 FAD         0.0338
     55 H52A       21.7181    2.6659   25.3221 H         1 FAD         0.0338
     56 H4B        21.1215    0.2571   27.1533 H         1 FAD         0.1030
     57 H3B        19.0330    1.6103   25.7923 H         1 FAD         0.0897
     58 HO3A       18.7161   -0.4115   26.8137 H         1 FAD         0.4045
     59 H2B        19.4002    3.8970   26.9859 H         1 FAD         0.0756
     60 HO2A       17.1481    3.2725   27.4286 H         1 FAD         0.4008
     61 H1B        19.7898    2.2057   29.4992 H         1 FAD         0.0875
     62 H8A        21.0350    5.2920   27.4870 H         1 FAD         0.0828
     63 H62A       22.6212    7.9848   31.2244 H         1 FAD         0.3152
     64 H2A        20.7640    3.5760   33.7660 H         1 FAD        -0.0229
     65 H6         15.3300   -0.3580   13.3370 H         1 FAD         0.1284
     66 HM71       13.7503    1.0953   14.0560 H         1 FAD         0.0261
     67 HM72       14.3431    2.6721   14.6799 H         1 FAD         0.0261
     68 HM73       13.8360    1.3857   15.8266 H         1 FAD         0.0261
     69 HM81       15.2979    3.0369   16.5527 H         1 FAD         0.0472
     70 HM82       17.0190    3.5502   16.5193 H         1 FAD         0.0472
     71 HM83       16.4427    2.4221   17.7929 H         1 FAD         0.0472
     72 H9         18.6390    1.2910   16.7230 H         1 FAD         0.1821
     73 H1'1       21.5903    0.2076   15.2038 H         1 FAD         0.0929
     74 H1'2       20.3307    1.0469   16.1710 H         1 FAD         0.0929
     75 H2'        21.4878   -1.7791   16.8058 H         1 FAD         0.0672
     76 HO2'       19.0616   -1.6741   17.3048 H         1 FAD         0.3859
     77 H3'        21.5298    1.0156   18.1516 H         1 FAD         0.0341
     78 HO3'       23.1120    0.8433   16.1939 H         1 FAD         0.4066
     79 H4'        22.7871   -1.7307   18.9541 H         1 FAD         0.0507
     80 HO4'       20.4189   -1.6490   19.5440 H         1 FAD         0.4500
     81 H5'1       24.2294    0.3444   19.2636 H         1 FAD         0.0478
     82 H5'2       22.8943    1.0550   20.2327 H         1 FAD         0.0478
@<TRIPOS>BOND
     1    1    2 2
     2    1    3 1
     3    1    4 1
     4    1   53 1
     5    4    5 1
     6    5    6 1
     7    5   54 1
     8    5   55 1
     9    6    7 1
    10    6    8 1
    11    6   56 1
    12    7   12 1
    13    8    9 1
    14    8   10 1
    15    8   57 1
    16    9   58 1
    17   10   11 1
    18   10   12 1
    19   10   59 1
    20   11   60 1
    21   12   13 1
    22   12   61 1
    23   13   14 ar
    24   13   22 ar
    25   14   15 ar
    26   14   62 1
    27   15   16 ar
    28   16   17 ar
    29   16   22 ar
    30   17   18 1
    31   17   19 ar
    32   18   63 1
    33   19   20 ar
    34   20   21 ar
    35   20   64 1
    36   21   22 ar
    37   23   24 ar
    38   23   40 ar
    39   24   25 1
    40   24   26 ar
    41   26   27 ar
    42   27   28 2
    43   27   29 ar
    44   29   30 ar
    45   29   40 1
    46   30   31 ar
    47   31   32 ar
    48   31   38 ar
    49   32   33 ar
    50   32   65 1
    51   33   34 1
    52   33   35 ar
    53   34   66 1
    54   34   67 1
    55   34   68 1
    56   35   36 1
    57   35   37 ar
    58   36   69 1
    59   36   70 1
    60   36   71 1
    61   37   38 ar
    62   37   72 1
    63   38   39 ar
    64   39   40 ar
    65   39   41 1
    66   41   42 1
    67   41   73 1
    68   41   74 1
    69   42   43 1
    70   42   44 1
    71   42   75 1
    72   43   76 1
    73   44   45 1
    74   44   46 1
    75   44   77 1
    76   45   78 1
    77   46   47 1
    78   46   48 1
    79   46   79 1
    80   47   80 1
    81   48   49 1
    82   48   81 1
    83   48   82 1
    84   49   50 1
    85   50   51 2
    86   50   52 1
    87   50   53 1
@<TRIPOS>SUBSTRUCTURE
     1 FAD         1 GROUP   0 A     ****
@<TRIPOS>MOLECULE
[[5-(6-aminopurin-9-yl)-3,4-dihydroxy-tetrahydrofuran-2-yl]methoxy-oxido-phosphoryl] [5-(7,8-dimethyl-2,4-dioxo-benzo[g]pteridin-10-yl)-3,4-dihydroxy-2-oxido-pentyl] phosphate
   83    88     1     0     0
SMALL
USER_CHARGES

@<TRIPOS>ATOM
      1 PA         21.8380    0.8050   23.1700 P.3       1 FAD         1.5712
      2 O1A        21.3030   -0.5190   22.7220 O.2       1 FAD        -0.8788
      3 O2A        21.2420    1.9380   22.7450 O.3       1 FAD        -0.8788
      4 O5B        21.5190    0.6820   24.6440 O.3       1 FAD        -0.5635
      5 C5B        21.8970    1.6430   25.6850 C.3       1 FAD         0.2062
      6 C4B        20.9970    1.3300   26.9450 C.3       1 FAD         0.1136
      7 O4B        21.4600    2.2240   28.0530 O.3       1 FAD        -0.3908
      8 C3B        19.4600    1.6220   26.8060 C.3       1 FAD         0.0875
      9 O3B        18.6710    0.5790   27.2900 O.3       1 FAD        -0.5875
     10 C2B        19.2980    2.9730   27.5740 C.3       1 FAD         0.0518
     11 O2B        18.0040    3.1220   28.1030 O.3       1 FAD        -0.5964
     12 C1B        20.2760    2.7830   28.6990 C.3       1 FAD         0.4314
     13 N9A        20.8010    4.0200   29.2670 N.pl3     1 FAD        -0.6848
     14 C8A        21.1540    5.1530   28.5750 C.ar      1 FAD         0.5902
     15 N7A        21.6680    6.0970   29.3600 N.ar      1 FAD        -0.5846
     16 C5A        21.5630    5.5850   30.6310 C.ar      1 FAD        -0.2013
     17 C6A        21.9270    6.1470   31.9320 C.ar      1 FAD         0.7010
     18 N6A        22.3520    7.3730   32.0980 N.pl3     1 FAD        -0.9350
     19 N1A        21.5850    5.3620   32.9970 N.ar      1 FAD        -0.8090
     20 C2A        21.0280    4.1270   32.8470 C.ar      1 FAD         0.6408
     21 N3A        20.7580    3.4920   31.6950 N.ar      1 FAD        -0.7057
     22 C4A        21.0940    4.2440   30.6070 C.ar      1 FAD         0.5638
     23 N1         21.1130   -2.2310   14.3340 N.ar      1 FAD        -0.7012
     24 C2         21.3700   -3.3170   13.6190 C.ar      1 FAD         0.8535
     25 O2         22.4720   -3.7950   13.5580 O.2       1 FAD        -0.6413
     26 N3         20.3350   -4.0620   12.9920 N.am      1 FAD        -0.6255
     27 C4         19.0640   -3.5450   12.8700 C.ar      1 FAD         0.6363
     28 O4         18.2010   -4.1990   12.3240 O.2       1 FAD        -0.6451
     29 C4X        18.8420   -2.2200   13.4310 C.ar      1 FAD         0.1995
     30 N5         17.6210   -1.6430   13.3240 N.ar      1 FAD        -0.4336
     31 C5X        17.4010   -0.5070   14.0540 C.ar      1 FAD         0.0081
     32 C6         16.0920    0.0300   14.0340 C.ar      1 FAD        -0.0800
     33 C7         15.7290    1.0490   14.8790 C.ar      1 FAD        -0.1223
     34 C7M        14.3190    1.5870   14.8590 C.3       1 FAD        -0.0391
     35 C8         16.6660    1.5470   15.8520 C.ar      1 FAD        -0.0152
     36 C8M        16.3340    2.7180   16.7390 C.3       1 FAD        -0.0717
     37 C9         17.9420    0.9810   15.9280 C.ar      1 FAD        -0.1645
     38 C9A        18.3310    0.0200   14.9920 C.ar      1 FAD         0.1734
     39 N10        19.6330   -0.5660   14.9940 N.pl3     1 FAD        -0.4975
     40 C10        19.8920   -1.6530   14.2710 C.ar      1 FAD         0.6248
     41 C1'        20.6850    0.0690   15.8130 C.3       1 FAD         0.1690
     42 C2'        21.0540   -0.7970   17.0450 C.3       1 FAD         0.0876
     43 O2'        19.8580   -1.0730   17.7680 O.3       1 FAD        -0.6366
     44 C3'        21.9860    0.0460   17.9030 C.3       1 FAD         0.0039
     45 O3'        23.1720    0.2940   17.1450 O.3       1 FAD        -0.5813
     46 C4'        22.3780   -0.7320   19.1670 C.3       1 FAD         0.4037
     47 O4'        21.2310   -1.0360   19.9620 O.3       1 FAD        -0.9155
     48 C5'        23.3750    0.1170   19.9180 C.3       1 FAD         0.1445
     49 O5'        23.8840   -0.6520   21.1830 O.3       1 FAD        -0.5752
     50 P          24.5070    0.1030   22.3450 P.3       1 FAD         1.5618
     51 O1P        24.9820   -0.9910   23.3090 O.2       1 FAD        -0.8726
     52 O2P        25.4370    1.0540   21.9500 O.3       1 FAD        -0.8726
     53 O3P        23.4730    0.8660   23.0320 O.3       1 FAD        -0.8058
     54 H51A       22.9631    1.5210   25.9270 H         1 FAD         0.0143
     55 H52A       21.7181    2.6659   25.3221 H         1 FAD         0.0143
     56 H4B        21.1215    0.2571   27.1533 H         1 FAD         0.1427
     57 H3B        19.0330    1.6103   25.7923 H         1 FAD         0.0787
     58 HO3A       18.7161   -0.4115   26.8137 H         1 FAD         0.3932
     59 H2B        19.4002    3.8970   26.9859 H         1 FAD         0.0733
     60 HO2A       17.1481    3.2725   27.4286 H         1 FAD         0.3993
     61 H1B        19.7898    2.2057   29.4992 H         1 FAD         0.0931
     62 H8A        21.0350    5.2920   27.4870 H         1 FAD         0.1519
     63 H61A       22.6212    7.9848   31.2244 H         1 FAD         0.4124
     64 H62A       22.4402    7.7921   33.1112 H         1 FAD         0.4124
     65 H2A        20.7640    3.5760   33.7660 H         1 FAD         0.0276
     66 HN3        20.5432   -5.0668   12.5956 H         1 FAD         0.3202
     67 H6         15.3300   -0.3580   13.3370 H         1 FAD         0.1306
     68 HM71       13.7503    1.0953   14.0560 H         1 FAD         0.0326
     69 HM72       14.3431    2.6721   14.6799 H         1 FAD         0.0326
     70 HM73       13.8360    1.3857   15.8266 H         1 FAD         0.0326
     71 HM81       15.2979    3.0369   16.5527 H         1 FAD         0.0616
     72 HM82       17.0190    3.5502   16.5193 H         1 FAD         0.0616
     73 HM83       16.4427    2.4221   17.7929 H         1 FAD         0.0616
     74 H9         18.6390    1.2910   16.7230 H         1 FAD         0.2846
     75 H1'1       21.5903    0.2076   15.2038 H         1 FAD         0.1156
     76 H1'2       20.3307    1.0469   16.1710 H         1 FAD         0.1156
     77 H2'        21.4878   -1.7791   16.8058 H         1 FAD         0.1030
     78 HO2'       19.0616   -1.6741   17.3048 H         1 FAD         0.3903
     79 H3'        21.5298    1.0156   18.1516 H         1 FAD         0.0217
     80 HO3'       23.1120    0.8433   16.1939 H         1 FAD         0.3493
     81 H4'        22.7871   -1.7307   18.9541 H         1 FAD        -0.0595
     82 H5'1       24.2294    0.3444   19.2636 H         1 FAD         0.0108
     83 H5'2       22.8943    1.0550   20.2327 H         1 FAD         0.0108
@<TRIPOS>BOND
     1    1    2 2
     2    1    3 1
     3    1    4 1
     4    1   53 1
     5    4    5 1
     6    5    6 1
     7    5   54 1
     8    5   55 1
     9    6    7 1
    10    6    8 1
    11    6   56 1
    12    7   12 1
    13    8    9 1
    14    8   10 1
    15    8   57 1
    16    9   58 1
    17   10   11 1
    18   10   12 1
    19   10   59 1
    20   11   60 1
    21   12   13 1
    22   12   61 1
    23   13   14 ar
    24   13   22 ar
    25   14   15 ar
    26   14   62 1
    27   15   16 ar
    28   16   17 ar
    29   16   22 ar
    30   17   18 1
    31   17   19 ar
    32   18   63 1
    33   18   64 1
    34   19   20 ar
    35   20   21 ar
    36   20   65 1
    37   21   22 ar
    38   23   24 ar
    39   23   40 ar
    40   24   25 2
    41   24   26 ar
    42   26   27 ar
    43   26   66 1
    44   27   28 2
    45   27   29 ar
    46   29   30 ar
    47   29   40 1
    48   30   31 ar
    49   31   32 ar
    50   31   38 ar
    51   32   33 ar
    52   32   67 1
    53   33   34 1
    54   33   35 ar
    55   34   68 1
    56   34   69 1
    57   34   70 1
    58   35   36 1
    59   35   37 ar
    60   36   71 1
    61   36   72 1
    62   36   73 1
    63   37   38 ar
    64   37   74 1
    65   38   39 ar
    66   39   40 ar
    67   39   41 1
    68   41   42 1
    69   41   75 1
    70   41   76 1
    71   42   43 1
    72   42   44 1
    73   42   77 1
    74   43   78 1
    75   44   45 1
    76   44   46 1
    77   44   79 1
    78   45   80 1
    79   46   47 1
    80   46   48 1
    81   46   81 1
    82   48   49 1
    83   48   82 1
    84   48   83 1
    85   49   50 1
    86   50   51 2
    87   50   52 1
    88   50   53 1
@<TRIPOS>SUBSTRUCTURE
     1 FAD         1 GROUP   0 A     ****
@<TRIPOS>MOLECULE
[[5-(6-aminopurin-9-yl)-3,4-dihydroxy-tetrahydrofuran-2-yl]methoxy-oxido-phosphoryl] [5-(7,8-dimethyl-2-oxido-4-oxo-benzo[g]pteridin-10-yl)-3,4-dihydroxy-2-oxido-pentyl] phosphate
   82    87     1     0     0
SMALL
USER_CHARGES

@<TRIPOS>ATOM
      1 PA         21.8380    0.8050   23.1700 P.3       1 FAD         1.5779
      2 O1A        21.3030   -0.5190   22.7220 O.2       1 FAD        -0.8846
      3 O2A        21.2420    1.9380   22.7450 O.3       1 FAD        -0.8846
      4 O5B        21.5190    0.6820   24.6440 O.3       1 FAD        -0.5650
      5 C5B        21.8970    1.6430   25.6850 C.3       1 FAD         0.2072
      6 C4B        20.9970    1.3300   26.9450 C.3       1 FAD         0.1167
      7 O4B        21.4600    2.2240   28.0530 O.3       1 FAD        -0.3918
      8 C3B        19.4600    1.6220   26.8060 C.3       1 FAD         0.0867
      9 O3B        18.6710    0.5790   27.2900 O.3       1 FAD        -0.5792
     10 C2B        19.2980    2.9730   27.5740 C.3       1 FAD         0.0482
     11 O2B        18.0040    3.1220   28.1030 O.3       1 FAD        -0.5981
     12 C1B        20.2760    2.7830   28.6990 C.3       1 FAD         0.4333
     13 N9A        20.8010    4.0200   29.2670 N.pl3     1 FAD        -0.6813
     14 C8A        21.1540    5.1530   28.5750 C.ar      1 FAD         0.5970
     15 N7A        21.6680    6.0970   29.3600 N.ar      1 FAD        -0.5907
     16 C5A        21.5630    5.5850   30.6310 C.ar      1 FAD        -0.1916
     17 C6A        21.9270    6.1470   31.9320 C.ar      1 FAD         0.6895
     18 N6A        22.3520    7.3730   32.0980 N.pl3     1 FAD        -0.9270
     19 N1A        21.5850    5.3620   32.9970 N.ar      1 FAD        -0.8097
     20 C2A        21.0280    4.1270   32.8470 C.ar      1 FAD         0.6343
     21 N3A        20.7580    3.4920   31.6950 N.ar      1 FAD        -0.6983
     22 C4A        21.0940    4.2440   30.6070 C.ar      1 FAD         0.5568
     23 N1         21.1130   -2.2310   14.3340 N.ar      1 FAD        -0.7944
     24 C2         21.3700   -3.3170   13.6190 C.ar      1 FAD         1.1303
     25 O2         22.4720   -3.7950   13.5580 O.3       1 FAD        -0.7303
     26 N3         20.3350   -4.0620   12.9920 N.ar      1 FAD        -0.8897
     27 C4         19.0640   -3.5450   12.8700 C.ar      1 FAD         0.6609
     28 O4         18.2010   -4.1990   12.3240 O.2       1 FAD        -0.7321
     29 C4X        18.8420   -2.2200   13.4310 C.ar      1 FAD         0.2287
     30 N5         17.6210   -1.6430   13.3240 N.ar      1 FAD        -0.5026
     31 C5X        17.4010   -0.5070   14.0540 C.ar      1 FAD         0.0108
     32 C6         16.0920    0.0300   14.0340 C.ar      1 FAD        -0.0785
     33 C7         15.7290    1.0490   14.8790 C.ar      1 FAD        -0.1681
     34 C7M        14.3190    1.5870   14.8590 C.3       1 FAD        -0.0191
     35 C8         16.6660    1.5470   15.8520 C.ar      1 FAD        -0.0439
     36 C8M        16.3340    2.7180   16.7390 C.3       1 FAD        -0.0582
     37 C9         17.9420    0.9810   15.9280 C.ar      1 FAD        -0.1668
     38 C9A        18.3310    0.0200   14.9920 C.ar      1 FAD         0.1742
     39 N10        19.6330   -0.5660   14.9940 N.pl3     1 FAD        -0.5703
     40 C10        19.8920   -1.6530   14.2710 C.ar      1 FAD         0.5694
     41 C1'        20.6850    0.0690   15.8130 C.3       1 FAD         0.2065
     42 C2'        21.0540   -0.7970   17.0450 C.3       1 FAD         0.0838
     43 O2'        19.8580   -1.0730   17.7680 O.3       1 FAD        -0.6272
     44 C3'        21.9860    0.0460   17.9030 C.3       1 FAD         0.0164
     45 O3'        23.1720    0.2940   17.1450 O.3       1 FAD        -0.5920
     46 C4'        22.3780   -0.7320   19.1670 C.3       1 FAD         0.4105
     47 O4'        21.2310   -1.0360   19.9620 O.3       1 FAD        -0.9136
     48 C5'        23.3750    0.1170   19.9180 C.3       1 FAD         0.1429
     49 O5'        23.8840   -0.6520   21.1830 O.3       1 FAD        -0.5842
     50 P          24.5070    0.1030   22.3450 P.3       1 FAD         1.5708
     51 O1P        24.9820   -0.9910   23.3090 O.2       1 FAD        -0.8793
     52 O2P        25.4370    1.0540   21.9500 O.3       1 FAD        -0.8793
     53 O3P        23.4730    0.8660   23.0320 O.3       1 FAD        -0.8107
     54 H51A       22.9631    1.5210   25.9270 H         1 FAD         0.0139
     55 H52A       21.7181    2.6659   25.3221 H         1 FAD         0.0139
     56 H4B        21.1215    0.2571   27.1533 H         1 FAD         0.1524
     57 H3B        19.0330    1.6103   25.7923 H         1 FAD         0.0822
     58 HO3A       18.7161   -0.4115   26.8137 H         1 FAD         0.3848
     59 H2B        19.4002    3.8970   26.9859 H         1 FAD         0.0723
     60 HO2A       17.1481    3.2725   27.4286 H         1 FAD         0.3969
     61 H1B        19.7898    2.2057   29.4992 H         1 FAD         0.0932
     62 H8A        21.0350    5.2920   27.4870 H         1 FAD         0.1520
     63 H61A       22.6212    7.9848   31.2244 H         1 FAD         0.4044
     64 H62A       22.4402    7.7921   33.1112 H         1 FAD         0.4044
     65 H2A        20.7640    3.5760   33.7660 H         1 FAD         0.0251
     66 H6         15.3300   -0.3580   13.3370 H         1 FAD         0.1149
     67 HM71       13.7503    1.0953   14.0560 H         1 FAD         0.0150
     68 HM72       14.3431    2.6721   14.6799 H         1 FAD         0.0150
     69 HM73       13.8360    1.3857   15.8266 H         1 FAD         0.0150
     70 HM81       15.2979    3.0369   16.5527 H         1 FAD         0.0455
     71 HM82       17.0190    3.5502   16.5193 H         1 FAD         0.0455
     72 HM83       16.4427    2.4221   17.7929 H         1 FAD         0.0455
     73 H9         18.6390    1.2910   16.7230 H         1 FAD         0.2533
     74 H1'1       21.5903    0.2076   15.2038 H         1 FAD         0.0952
     75 H1'2       20.3307    1.0469   16.1710 H         1 FAD         0.0952
     76 H2'        21.4878   -1.7791   16.8058 H         1 FAD         0.0839
     77 HO2'       19.0616   -1.6741   17.3048 H         1 FAD         0.3762
     78 H3'        21.5298    1.0156   18.1516 H         1 FAD        -0.0054
     79 HO3'       23.1120    0.8433   16.1939 H         1 FAD         0.3586
     80 H4'        22.7871   -1.7307   18.9541 H         1 FAD        -0.0684
     81 H5'1       24.2294    0.3444   19.2636 H         1 FAD         0.0044
     82 H5'2       22.8943    1.0550   20.2327 H         1 FAD         0.0044
@<TRIPOS>BOND
     1    1    2 2
     2    1    3 1
     3    1    4 1
     4    1   53 1
     5    4    5 1
     6    5    6 1
     7    5   54 1
     8    5   55 1
     9    6    7 1
    10    6    8 1
    11    6   56 1
    12    7   12 1
    13    8    9 1
    14    8   10 1
    15    8   57 1
    16    9   58 1
    17   10   11 1
    18   10   12 1
    19   10   59 1
    20   11   60 1
    21   12   13 1
    22   12   61 1
    23   13   14 ar
    24   13   22 ar
    25   14   15 ar
    26   14   62 1
    27   15   16 ar
    28   16   17 ar
    29   16   22 ar
    30   17   18 1
    31   17   19 ar
    32   18   63 1
    33   18   64 1
    34   19   20 ar
    35   20   21 ar
    36   20   65 1
    37   21   22 ar
    38   23   24 ar
    39   23   40 ar
    40   24   25 1
    41   24   26 ar
    42   26   27 ar
    43   27   28 2
    44   27   29 ar
    45   29   30 ar
    46   29   40 1
    47   30   31 ar
    48   31   32 ar
    49   31   38 ar
    50   32   33 ar
    51   32   66 1
    52   33   34 1
    53   33   35 ar
    54   34   67 1
    55   34   68 1
    56   34   69 1
    57   35   36 1
    58   35   37 ar
    59   36   70 1
    60   36   71 1
    61   36   72 1
    62   37   38 ar
    63   37   73 1
    64   38   39 ar
    65   39   40 ar
    66   39   41 1
    67   41   42 1
    68   41   74 1
    69   41   75 1
    70   42   43 1
    71   42   44 1
    72   42   76 1
    73   43   77 1
    74   44   45 1
    75   44   46 1
    76   44   78 1
    77   45   79 1
    78   46   47 1
    79   46   48 1
    80   46   80 1
    81   48   49 1
    82   48   81 1
    83   48   82 1
    84   49   50 1
    85   50   51 2
    86   50   52 1
    87   50   53 1
@<TRIPOS>SUBSTRUCTURE
     1 FAD         1 GROUP   0 A     ****
