@<TRIPOS>MOLECULE
ACT
    7     6     1     0     0
SMALL
USER_CHARGES

@<TRIPOS>ATOM
      1 C          50.5970   -7.0800   41.5830 C.2       1 ACT         0.9046
      2 O          50.9910   -7.2180   42.8610 O.co2     1 ACT        -0.8603
      3 OXT        51.3930   -7.3340   40.4830 O.co2     1 ACT        -0.8603
      4 CH3        49.2150   -6.8840   41.1360 C.3       1 ACT        -0.2030
      5 H1         48.5735   -6.6810   42.0062 H         1 ACT         0.0064
      6 H2         48.8628   -7.7920   40.6246 H         1 ACT         0.0064
      7 H3         49.1716   -6.0319   40.4417 H         1 ACT         0.0064
@<TRIPOS>BOND
     1    1    2 2
     2    1    3 1
     3    1    4 1
     4    4    5 1
     5    4    6 1
     6    4    7 1
@<TRIPOS>SUBSTRUCTURE
     1 ACT         1 GROUP   0 A     ****
