@<TRIPOS>MOLECULE
FAD 
   84    89     1     0     0
SMALL
USER_CHARGES

@<TRIPOS>ATOM
      1 PA         21.8380    0.8050   23.1700 P.3       1 FAD         1.5668
      2 O1A        21.3030   -0.5190   22.7220 O.2       1 FAD        -0.8622
      3 O2A        21.2420    1.9380   22.7450 O.3       1 FAD        -0.8622
      4 O5B        21.5190    0.6820   24.6440 O.3       1 FAD        -0.5621
      5 C5B        21.8970    1.6430   25.6850 C.3       1 FAD         0.2060
      6 C4B        20.9970    1.3300   26.9450 C.3       1 FAD         0.0838
      7 O4B        21.4600    2.2240   28.0530 O.3       1 FAD        -0.3984
      8 C3B        19.4600    1.6220   26.8060 C.3       1 FAD         0.0822
      9 O3B        18.6710    0.5790   27.2900 O.3       1 FAD        -0.6128
     10 C2B        19.2980    2.9730   27.5740 C.3       1 FAD         0.0713
     11 O2B        18.0040    3.1220   28.1030 O.3       1 FAD        -0.5918
     12 C1B        20.2760    2.7830   28.6990 C.3       1 FAD         0.4096
     13 N9A        20.8010    4.0200   29.2670 N.pl3     1 FAD        -0.6840
     14 C8A        21.1540    5.1530   28.5750 C.ar      1 FAD         0.5802
     15 N7A        21.6680    6.0970   29.3600 N.ar      1 FAD        -0.5778
     16 C5A        21.5630    5.5850   30.6310 C.ar      1 FAD        -0.2035
     17 C6A        21.9270    6.1470   31.9320 C.ar      1 FAD         0.7084
     18 N6A        22.3520    7.3730   32.0980 N.pl3     1 FAD        -0.9319
     19 N1A        21.5850    5.3620   32.9970 N.ar      1 FAD        -0.8047
     20 C2A        21.0280    4.1270   32.8470 C.ar      1 FAD         0.6499
     21 N3A        20.7580    3.4920   31.6950 N.ar      1 FAD        -0.7057
     22 C4A        21.0940    4.2440   30.6070 C.ar      1 FAD         0.5713
     23 N1         21.1130   -2.2310   14.3340 N.ar      1 FAD        -0.6853
     24 C2         21.3700   -3.3170   13.6190 C.ar      1 FAD         0.8525
     25 O2         22.4720   -3.7950   13.5580 O.2       1 FAD        -0.6049
     26 N3         20.3350   -4.0620   12.9920 N.am      1 FAD        -0.6220
     27 C4         19.0640   -3.5450   12.8700 C.ar      1 FAD         0.6338
     28 O4         18.2010   -4.1990   12.3240 O.2       1 FAD        -0.6054
     29 C4X        18.8420   -2.2200   13.4310 C.ar      1 FAD         0.2271
     30 N5         17.6210   -1.6430   13.3240 N.ar      1 FAD        -0.4264
     31 C5X        17.4010   -0.5070   14.0540 C.ar      1 FAD         0.0186
     32 C6         16.0920    0.0300   14.0340 C.ar      1 FAD        -0.0514
     33 C7         15.7290    1.0490   14.8790 C.ar      1 FAD        -0.1187
     34 C7M        14.3190    1.5870   14.8590 C.3       1 FAD        -0.0469
     35 C8         16.6660    1.5470   15.8520 C.ar      1 FAD        -0.0007
     36 C8M        16.3340    2.7180   16.7390 C.3       1 FAD        -0.0708
     37 C9         17.9420    0.9810   15.9280 C.ar      1 FAD        -0.1734
     38 C9A        18.3310    0.0200   14.9920 C.ar      1 FAD         0.1741
     39 N10        19.6330   -0.5660   14.9940 N.pl3     1 FAD        -0.5376
     40 C10        19.8920   -1.6530   14.2710 C.ar      1 FAD         0.6242
     41 C1'        20.6850    0.0690   15.8130 C.3       1 FAD         0.1938
     42 C2'        21.0540   -0.7970   17.0450 C.3       1 FAD         0.0844
     43 O2'        19.8580   -1.0730   17.7680 O.3       1 FAD        -0.6092
     44 C3'        21.9860    0.0460   17.9030 C.3       1 FAD         0.1034
     45 O3'        23.1720    0.2940   17.1450 O.3       1 FAD        -0.5825
     46 C4'        22.3780   -0.7320   19.1670 C.3       1 FAD         0.1313
     47 O4'        21.2310   -1.0360   19.9620 O.3       1 FAD        -0.6714
     48 C5'        23.3750    0.1170   19.9180 C.3       1 FAD         0.1643
     49 O5'        23.8840   -0.6520   21.1830 O.3       1 FAD        -0.5939
     50 P          24.5070    0.1030   22.3450 P.3       1 FAD         1.5888
     51 O1P        24.9820   -0.9910   23.3090 O.2       1 FAD        -0.8647
     52 O2P        25.4370    1.0540   21.9500 O.3       1 FAD        -0.8647
     53 O3P        23.4730    0.8660   23.0320 O.3       1 FAD        -0.8132
     54 H51A       22.9631    1.5210   25.9270 H         1 FAD         0.0169
     55 H52A       21.7181    2.6659   25.3221 H         1 FAD         0.0169
     56 H4B        21.1215    0.2571   27.1533 H         1 FAD         0.1331
     57 H3B        19.0330    1.6103   25.7923 H         1 FAD         0.1023
     58 HO3A       18.7161   -0.4115   26.8137 H         1 FAD         0.4173
     59 H2B        19.4002    3.8970   26.9859 H         1 FAD         0.0806
     60 HO2A       17.1481    3.2725   27.4286 H         1 FAD         0.4152
     61 H1B        19.7898    2.2057   29.4992 H         1 FAD         0.0931
     62 H8A        21.0350    5.2920   27.4870 H         1 FAD         0.1340
     63 H61A       22.6212    7.9848   31.2244 H         1 FAD         0.4147
     64 H62A       22.4402    7.7921   33.1112 H         1 FAD         0.4147
     65 H2A        20.7640    3.5760   33.7660 H         1 FAD         0.0324
     66 HN3        20.5432   -5.0668   12.5956 H         1 FAD         0.3357
     67 H6         15.3300   -0.3580   13.3370 H         1 FAD         0.1485
     68 HM71       13.7503    1.0953   14.0560 H         1 FAD         0.0425
     69 HM72       14.3431    2.6721   14.6799 H         1 FAD         0.0425
     70 HM73       13.8360    1.3857   15.8266 H         1 FAD         0.0425
     71 HM81       15.2979    3.0369   16.5527 H         1 FAD         0.0605
     72 HM82       17.0190    3.5502   16.5193 H         1 FAD         0.0605
     73 HM83       16.4427    2.4221   17.7929 H         1 FAD         0.0605
     74 H9         18.6390    1.2910   16.7230 H         1 FAD         0.1983
     75 H1'1       21.5903    0.2076   15.2038 H         1 FAD         0.1083
     76 H1'2       20.3307    1.0469   16.1710 H         1 FAD         0.1083
     77 H2'        21.4878   -1.7791   16.8058 H         1 FAD         0.0714
     78 HO2'       19.0616   -1.6741   17.3048 H         1 FAD         0.4029
     79 H3'        21.5298    1.0156   18.1516 H         1 FAD         0.0451
     80 HO3'       23.1120    0.8433   16.1939 H         1 FAD         0.4022
     81 H4'        22.7871   -1.7307   18.9541 H         1 FAD         0.0526
     82 HO4'       20.4189   -1.6490   19.5440 H         1 FAD         0.4590
     83 H5'1       24.2294    0.3444   19.2636 H         1 FAD         0.0509
     84 H5'2       22.8943    1.0550   20.2327 H         1 FAD         0.0509
@<TRIPOS>BOND
     1    1    2 2
     2    1    3 1
     3    1    4 1
     4    1   53 1
     5    4    5 1
     6    5    6 1
     7    5   54 1
     8    5   55 1
     9    6    7 1
    10    6    8 1
    11    6   56 1
    12    7   12 1
    13    8    9 1
    14    8   10 1
    15    8   57 1
    16    9   58 1
    17   10   11 1
    18   10   12 1
    19   10   59 1
    20   11   60 1
    21   12   13 1
    22   12   61 1
    23   13   14 ar
    24   13   22 ar
    25   14   15 ar
    26   14   62 1
    27   15   16 ar
    28   16   17 ar
    29   16   22 ar
    30   17   18 1
    31   17   19 ar
    32   18   63 1
    33   18   64 1
    34   19   20 ar
    35   20   21 ar
    36   20   65 1
    37   21   22 ar
    38   23   24 ar
    39   23   40 ar
    40   24   25 2
    41   24   26 ar
    42   26   27 ar
    43   26   66 1
    44   27   28 2
    45   27   29 ar
    46   29   30 ar
    47   29   40 1
    48   30   31 ar
    49   31   32 ar
    50   31   38 ar
    51   32   33 ar
    52   32   67 1
    53   33   34 1
    54   33   35 ar
    55   34   68 1
    56   34   69 1
    57   34   70 1
    58   35   36 1
    59   35   37 ar
    60   36   71 1
    61   36   72 1
    62   36   73 1
    63   37   38 ar
    64   37   74 1
    65   38   39 ar
    66   39   40 ar
    67   39   41 1
    68   41   42 1
    69   41   75 1
    70   41   76 1
    71   42   43 1
    72   42   44 1
    73   42   77 1
    74   43   78 1
    75   44   45 1
    76   44   46 1
    77   44   79 1
    78   45   80 1
    79   46   47 1
    80   46   48 1
    81   46   81 1
    82   47   82 1
    83   48   49 1
    84   48   83 1
    85   48   84 1
    86   49   50 1
    87   50   51 2
    88   50   52 1
    89   50   53 1
@<TRIPOS>SUBSTRUCTURE
     1 FAD         1 GROUP   0 A     ****
@<TRIPOS>MOLECULE
[5-(6-aminopurin-9-yl)-3,4-dihydroxy-tetrahydrofuran-2-yl]methyl [[5-(7,8-dimethyl-2,4-dioxo-benzo[g]pteridin-10-yl)-2,3,4-trihydroxy-pentoxy]-hydroxy-phosphoryl] phosphate
   85    90     1     0     0
SMALL
USER_CHARGES

@<TRIPOS>ATOM
      1 PA         21.8380    0.8050   23.1700 P.3       1 FAD         1.5364
      2 O1A        21.3030   -0.5190   22.7220 O.2       1 FAD        -0.8107
      3 O2A        21.2420    1.9380   22.7450 O.3       1 FAD        -0.8107
      4 O5B        21.5190    0.6820   24.6440 O.3       1 FAD        -0.5576
      5 C5B        21.8970    1.6430   25.6850 C.3       1 FAD         0.1717
      6 C4B        20.9970    1.3300   26.9450 C.3       1 FAD         0.1002
      7 O4B        21.4600    2.2240   28.0530 O.3       1 FAD        -0.4068
      8 C3B        19.4600    1.6220   26.8060 C.3       1 FAD         0.0744
      9 O3B        18.6710    0.5790   27.2900 O.3       1 FAD        -0.6118
     10 C2B        19.2980    2.9730   27.5740 C.3       1 FAD         0.0966
     11 O2B        18.0040    3.1220   28.1030 O.3       1 FAD        -0.5732
     12 C1B        20.2760    2.7830   28.6990 C.3       1 FAD         0.4191
     13 N9A        20.8010    4.0200   29.2670 N.pl3     1 FAD        -0.6917
     14 C8A        21.1540    5.1530   28.5750 C.ar      1 FAD         0.5567
     15 N7A        21.6680    6.0970   29.3600 N.ar      1 FAD        -0.5549
     16 C5A        21.5630    5.5850   30.6310 C.ar      1 FAD        -0.2165
     17 C6A        21.9270    6.1470   31.9320 C.ar      1 FAD         0.7334
     18 N6A        22.3520    7.3730   32.0980 N.pl3     1 FAD        -0.9418
     19 N1A        21.5850    5.3620   32.9970 N.ar      1 FAD        -0.7972
     20 C2A        21.0280    4.1270   32.8470 C.ar      1 FAD         0.6685
     21 N3A        20.7580    3.4920   31.6950 N.ar      1 FAD        -0.7132
     22 C4A        21.0940    4.2440   30.6070 C.ar      1 FAD         0.5866
     23 N1         21.1130   -2.2310   14.3340 N.ar      1 FAD        -0.7000
     24 C2         21.3700   -3.3170   13.6190 C.ar      1 FAD         0.8510
     25 O2         22.4720   -3.7950   13.5580 O.2       1 FAD        -0.5848
     26 N3         20.3350   -4.0620   12.9920 N.am      1 FAD        -0.6171
     27 C4         19.0640   -3.5450   12.8700 C.ar      1 FAD         0.6308
     28 O4         18.2010   -4.1990   12.3240 O.2       1 FAD        -0.5838
     29 C4X        18.8420   -2.2200   13.4310 C.ar      1 FAD         0.2314
     30 N5         17.6210   -1.6430   13.3240 N.ar      1 FAD        -0.4184
     31 C5X        17.4010   -0.5070   14.0540 C.ar      1 FAD         0.0261
     32 C6         16.0920    0.0300   14.0340 C.ar      1 FAD        -0.0448
     33 C7         15.7290    1.0490   14.8790 C.ar      1 FAD        -0.1104
     34 C7M        14.3190    1.5870   14.8590 C.3       1 FAD        -0.0517
     35 C8         16.6660    1.5470   15.8520 C.ar      1 FAD         0.0007
     36 C8M        16.3340    2.7180   16.7390 C.3       1 FAD        -0.0702
     37 C9         17.9420    0.9810   15.9280 C.ar      1 FAD        -0.1752
     38 C9A        18.3310    0.0200   14.9920 C.ar      1 FAD         0.1667
     39 N10        19.6330   -0.5660   14.9940 N.pl3     1 FAD        -0.5636
     40 C10        19.8920   -1.6530   14.2710 C.ar      1 FAD         0.6069
     41 C1'        20.6850    0.0690   15.8130 C.3       1 FAD         0.1568
     42 C2'        21.0540   -0.7970   17.0450 C.3       1 FAD         0.0929
     43 O2'        19.8580   -1.0730   17.7680 O.3       1 FAD        -0.5965
     44 C3'        21.9860    0.0460   17.9030 C.3       1 FAD         0.1428
     45 O3'        23.1720    0.2940   17.1450 O.3       1 FAD        -0.5957
     46 C4'        22.3780   -0.7320   19.1670 C.3       1 FAD         0.1441
     47 O4'        21.2310   -1.0360   19.9620 O.3       1 FAD        -0.6353
     48 C5'        23.3750    0.1170   19.9180 C.3       1 FAD         0.1185
     49 O5'        23.8840   -0.6520   21.1830 O.3       1 FAD        -0.5880
     50 P          24.5070    0.1030   22.3450 P.3       1 FAD         1.7719
     51 O1P        24.9820   -0.9910   23.3090 O.2       1 FAD        -0.8455
     52 O2P        25.4370    1.0540   21.9500 O.3       1 FAD        -0.8024
     53 O3P        23.4730    0.8660   23.0320 O.3       1 FAD        -0.7902
     54 H51A       22.9631    1.5210   25.9270 H         1 FAD         0.0378
     55 H52A       21.7181    2.6659   25.3221 H         1 FAD         0.0378
     56 H4B        21.1215    0.2571   27.1533 H         1 FAD         0.0948
     57 H3B        19.0330    1.6103   25.7923 H         1 FAD         0.0818
     58 HO3A       18.7161   -0.4115   26.8137 H         1 FAD         0.4215
     59 H2B        19.4002    3.8970   26.9859 H         1 FAD         0.0767
     60 HO2A       17.1481    3.2725   27.4286 H         1 FAD         0.4217
     61 H1B        19.7898    2.2057   29.4992 H         1 FAD         0.1056
     62 H8A        21.0350    5.2920   27.4870 H         1 FAD         0.0984
     63 H61A       22.6212    7.9848   31.2244 H         1 FAD         0.4296
     64 H62A       22.4402    7.7921   33.1112 H         1 FAD         0.4296
     65 H2A        20.7640    3.5760   33.7660 H         1 FAD         0.0442
     66 HN3        20.5432   -5.0668   12.5956 H         1 FAD         0.3440
     67 H6         15.3300   -0.3580   13.3370 H         1 FAD         0.1582
     68 HM71       13.7503    1.0953   14.0560 H         1 FAD         0.0480
     69 HM72       14.3431    2.6721   14.6799 H         1 FAD         0.0480
     70 HM73       13.8360    1.3857   15.8266 H         1 FAD         0.0480
     71 HM81       15.2979    3.0369   16.5527 H         1 FAD         0.0587
     72 HM82       17.0190    3.5502   16.5193 H         1 FAD         0.0587
     73 HM83       16.4427    2.4221   17.7929 H         1 FAD         0.0587
     74 H9         18.6390    1.2910   16.7230 H         1 FAD         0.1763
     75 H1'1       21.5903    0.2076   15.2038 H         1 FAD         0.1047
     76 H1'2       20.3307    1.0469   16.1710 H         1 FAD         0.1047
     77 H2'        21.4878   -1.7791   16.8058 H         1 FAD         0.0685
     78 HO2'       19.0616   -1.6741   17.3048 H         1 FAD         0.4058
     79 H3'        21.5298    1.0156   18.1516 H         1 FAD         0.0643
     80 HO3'       23.1120    0.8433   16.1939 H         1 FAD         0.4250
     81 H4'        22.7871   -1.7307   18.9541 H         1 FAD         0.0576
     82 HO4'       20.4189   -1.6490   19.5440 H         1 FAD         0.4390
     83 H5'1       24.2294    0.3444   19.2636 H         1 FAD         0.0711
     84 H5'2       22.8943    1.0550   20.2327 H         1 FAD         0.0711
     85 HOP2       26.3384    0.7464   21.3998 H         1 FAD         0.4857
@<TRIPOS>BOND
     1    1    2 2
     2    1    3 1
     3    1    4 1
     4    1   53 1
     5    4    5 1
     6    5    6 1
     7    5   54 1
     8    5   55 1
     9    6    7 1
    10    6    8 1
    11    6   56 1
    12    7   12 1
    13    8    9 1
    14    8   10 1
    15    8   57 1
    16    9   58 1
    17   10   11 1
    18   10   12 1
    19   10   59 1
    20   11   60 1
    21   12   13 1
    22   12   61 1
    23   13   14 ar
    24   13   22 ar
    25   14   15 ar
    26   14   62 1
    27   15   16 ar
    28   16   17 ar
    29   16   22 ar
    30   17   18 1
    31   17   19 ar
    32   18   63 1
    33   18   64 1
    34   19   20 ar
    35   20   21 ar
    36   20   65 1
    37   21   22 ar
    38   23   24 ar
    39   23   40 ar
    40   24   25 2
    41   24   26 ar
    42   26   27 ar
    43   26   66 1
    44   27   28 2
    45   27   29 ar
    46   29   30 ar
    47   29   40 1
    48   30   31 ar
    49   31   32 ar
    50   31   38 ar
    51   32   33 ar
    52   32   67 1
    53   33   34 1
    54   33   35 ar
    55   34   68 1
    56   34   69 1
    57   34   70 1
    58   35   36 1
    59   35   37 ar
    60   36   71 1
    61   36   72 1
    62   36   73 1
    63   37   38 ar
    64   37   74 1
    65   38   39 ar
    66   39   40 ar
    67   39   41 1
    68   41   42 1
    69   41   75 1
    70   41   76 1
    71   42   43 1
    72   42   44 1
    73   42   77 1
    74   43   78 1
    75   44   45 1
    76   44   46 1
    77   44   79 1
    78   45   80 1
    79   46   47 1
    80   46   48 1
    81   46   81 1
    82   47   82 1
    83   48   49 1
    84   48   83 1
    85   48   84 1
    86   49   50 1
    87   50   51 2
    88   50   52 1
    89   50   53 1
    90   52   85 1
@<TRIPOS>SUBSTRUCTURE
     1 FAD         1 GROUP   0 A     ****
@<TRIPOS>MOLECULE
[[5-(6-aminopurin-9-yl)-3,4-dihydroxy-tetrahydrofuran-2-yl]methoxy-hydroxy-phosphoryl] [5-(7,8-dimethyl-2,4-dioxo-benzo[g]pteridin-10-yl)-2,3,4-trihydroxy-pentyl] phosphate
   85    90     1     0     0
SMALL
USER_CHARGES

@<TRIPOS>ATOM
      1 PA         21.8380    0.8050   23.1700 P.3       1 FAD         1.7640
      2 O1A        21.3030   -0.5190   22.7220 O.2       1 FAD        -0.8536
      3 O2A        21.2420    1.9380   22.7450 O.3       1 FAD        -0.7867
      4 O5B        21.5190    0.6820   24.6440 O.3       1 FAD        -0.5901
      5 C5B        21.8970    1.6430   25.6850 C.3       1 FAD         0.1483
      6 C4B        20.9970    1.3300   26.9450 C.3       1 FAD         0.1117
      7 O4B        21.4600    2.2240   28.0530 O.3       1 FAD        -0.4148
      8 C3B        19.4600    1.6220   26.8060 C.3       1 FAD         0.0843
      9 O3B        18.6710    0.5790   27.2900 O.3       1 FAD        -0.6227
     10 C2B        19.2980    2.9730   27.5740 C.3       1 FAD         0.1175
     11 O2B        18.0040    3.1220   28.1030 O.3       1 FAD        -0.5785
     12 C1B        20.2760    2.7830   28.6990 C.3       1 FAD         0.4094
     13 N9A        20.8010    4.0200   29.2670 N.pl3     1 FAD        -0.6846
     14 C8A        21.1540    5.1530   28.5750 C.ar      1 FAD         0.5479
     15 N7A        21.6680    6.0970   29.3600 N.ar      1 FAD        -0.5611
     16 C5A        21.5630    5.5850   30.6310 C.ar      1 FAD        -0.2179
     17 C6A        21.9270    6.1470   31.9320 C.ar      1 FAD         0.7316
     18 N6A        22.3520    7.3730   32.0980 N.pl3     1 FAD        -0.9408
     19 N1A        21.5850    5.3620   32.9970 N.ar      1 FAD        -0.7971
     20 C2A        21.0280    4.1270   32.8470 C.ar      1 FAD         0.6694
     21 N3A        20.7580    3.4920   31.6950 N.ar      1 FAD        -0.7099
     22 C4A        21.0940    4.2440   30.6070 C.ar      1 FAD         0.5881
     23 N1         21.1130   -2.2310   14.3340 N.ar      1 FAD        -0.7022
     24 C2         21.3700   -3.3170   13.6190 C.ar      1 FAD         0.8512
     25 O2         22.4720   -3.7950   13.5580 O.2       1 FAD        -0.5884
     26 N3         20.3350   -4.0620   12.9920 N.am      1 FAD        -0.6180
     27 C4         19.0640   -3.5450   12.8700 C.ar      1 FAD         0.6317
     28 O4         18.2010   -4.1990   12.3240 O.2       1 FAD        -0.5866
     29 C4X        18.8420   -2.2200   13.4310 C.ar      1 FAD         0.2291
     30 N5         17.6210   -1.6430   13.3240 N.ar      1 FAD        -0.4181
     31 C5X        17.4010   -0.5070   14.0540 C.ar      1 FAD         0.0255
     32 C6         16.0920    0.0300   14.0340 C.ar      1 FAD        -0.0448
     33 C7         15.7290    1.0490   14.8790 C.ar      1 FAD        -0.1123
     34 C7M        14.3190    1.5870   14.8590 C.3       1 FAD        -0.0506
     35 C8         16.6660    1.5470   15.8520 C.ar      1 FAD         0.0023
     36 C8M        16.3340    2.7180   16.7390 C.3       1 FAD        -0.0715
     37 C9         17.9420    0.9810   15.9280 C.ar      1 FAD        -0.1777
     38 C9A        18.3310    0.0200   14.9920 C.ar      1 FAD         0.1665
     39 N10        19.6330   -0.5660   14.9940 N.pl3     1 FAD        -0.5615
     40 C10        19.8920   -1.6530   14.2710 C.ar      1 FAD         0.6078
     41 C1'        20.6850    0.0690   15.8130 C.3       1 FAD         0.1544
     42 C2'        21.0540   -0.7970   17.0450 C.3       1 FAD         0.0956
     43 O2'        19.8580   -1.0730   17.7680 O.3       1 FAD        -0.5999
     44 C3'        21.9860    0.0460   17.9030 C.3       1 FAD         0.1228
     45 O3'        23.1720    0.2940   17.1450 O.3       1 FAD        -0.5997
     46 C4'        22.3780   -0.7320   19.1670 C.3       1 FAD         0.1265
     47 O4'        21.2310   -1.0360   19.9620 O.3       1 FAD        -0.6339
     48 C5'        23.3750    0.1170   19.9180 C.3       1 FAD         0.1547
     49 O5'        23.8840   -0.6520   21.1830 O.3       1 FAD        -0.5733
     50 P          24.5070    0.1030   22.3450 P.3       1 FAD         1.5518
     51 O1P        24.9820   -0.9910   23.3090 O.2       1 FAD        -0.8234
     52 O2P        25.4370    1.0540   21.9500 O.3       1 FAD        -0.8234
     53 O3P        23.4730    0.8660   23.0320 O.3       1 FAD        -0.7909
     54 HOA2       20.1466    2.0306   22.7825 H         1 FAD         0.4645
     55 H51A       22.9631    1.5210   25.9270 H         1 FAD         0.0763
     56 H52A       21.7181    2.6659   25.3221 H         1 FAD         0.0763
     57 H4B        21.1215    0.2571   27.1533 H         1 FAD         0.0951
     58 H3B        19.0330    1.6103   25.7923 H         1 FAD         0.1000
     59 HO3A       18.7161   -0.4115   26.8137 H         1 FAD         0.4285
     60 H2B        19.4002    3.8970   26.9859 H         1 FAD         0.0838
     61 HO2A       17.1481    3.2725   27.4286 H         1 FAD         0.4275
     62 H1B        19.7898    2.2057   29.4992 H         1 FAD         0.1045
     63 H8A        21.0350    5.2920   27.4870 H         1 FAD         0.0910
     64 H61A       22.6212    7.9848   31.2244 H         1 FAD         0.4283
     65 H62A       22.4402    7.7921   33.1112 H         1 FAD         0.4283
     66 H2A        20.7640    3.5760   33.7660 H         1 FAD         0.0445
     67 HN3        20.5432   -5.0668   12.5956 H         1 FAD         0.3430
     68 H6         15.3300   -0.3580   13.3370 H         1 FAD         0.1558
     69 HM71       13.7503    1.0953   14.0560 H         1 FAD         0.0472
     70 HM72       14.3431    2.6721   14.6799 H         1 FAD         0.0472
     71 HM73       13.8360    1.3857   15.8266 H         1 FAD         0.0472
     72 HM81       15.2979    3.0369   16.5527 H         1 FAD         0.0608
     73 HM82       17.0190    3.5502   16.5193 H         1 FAD         0.0608
     74 HM83       16.4427    2.4221   17.7929 H         1 FAD         0.0608
     75 H9         18.6390    1.2910   16.7230 H         1 FAD         0.1845
     76 H1'1       21.5903    0.2076   15.2038 H         1 FAD         0.1063
     77 H1'2       20.3307    1.0469   16.1710 H         1 FAD         0.1063
     78 H2'        21.4878   -1.7791   16.8058 H         1 FAD         0.0644
     79 HO2'       19.0616   -1.6741   17.3048 H         1 FAD         0.4054
     80 H3'        21.5298    1.0156   18.1516 H         1 FAD         0.0581
     81 HO3'       23.1120    0.8433   16.1939 H         1 FAD         0.4195
     82 H4'        22.7871   -1.7307   18.9541 H         1 FAD         0.0760
     83 HO4'       20.4189   -1.6490   19.5440 H         1 FAD         0.4371
     84 H5'1       24.2294    0.3444   19.2636 H         1 FAD         0.0565
     85 H5'2       22.8943    1.0550   20.2327 H         1 FAD         0.0565
@<TRIPOS>BOND
     1    1    2 2
     2    1    3 1
     3    1    4 1
     4    1   53 1
     5    3   54 1
     6    4    5 1
     7    5    6 1
     8    5   55 1
     9    5   56 1
    10    6    7 1
    11    6    8 1
    12    6   57 1
    13    7   12 1
    14    8    9 1
    15    8   10 1
    16    8   58 1
    17    9   59 1
    18   10   11 1
    19   10   12 1
    20   10   60 1
    21   11   61 1
    22   12   13 1
    23   12   62 1
    24   13   14 ar
    25   13   22 ar
    26   14   15 ar
    27   14   63 1
    28   15   16 ar
    29   16   17 ar
    30   16   22 ar
    31   17   18 1
    32   17   19 ar
    33   18   64 1
    34   18   65 1
    35   19   20 ar
    36   20   21 ar
    37   20   66 1
    38   21   22 ar
    39   23   24 ar
    40   23   40 ar
    41   24   25 2
    42   24   26 ar
    43   26   27 ar
    44   26   67 1
    45   27   28 2
    46   27   29 ar
    47   29   30 ar
    48   29   40 1
    49   30   31 ar
    50   31   32 ar
    51   31   38 ar
    52   32   33 ar
    53   32   68 1
    54   33   34 1
    55   33   35 ar
    56   34   69 1
    57   34   70 1
    58   34   71 1
    59   35   36 1
    60   35   37 ar
    61   36   72 1
    62   36   73 1
    63   36   74 1
    64   37   38 ar
    65   37   75 1
    66   38   39 ar
    67   39   40 ar
    68   39   41 1
    69   41   42 1
    70   41   76 1
    71   41   77 1
    72   42   43 1
    73   42   44 1
    74   42   78 1
    75   43   79 1
    76   44   45 1
    77   44   46 1
    78   44   80 1
    79   45   81 1
    80   46   47 1
    81   46   48 1
    82   46   82 1
    83   47   83 1
    84   48   49 1
    85   48   84 1
    86   48   85 1
    87   49   50 1
    88   50   51 2
    89   50   52 1
    90   50   53 1
@<TRIPOS>SUBSTRUCTURE
     1 FAD         1 GROUP   0 A     ****
@<TRIPOS>MOLECULE
[[5-(6-amino-1,8-dihydropurine-6,8-diylium-7-id-9-yl)-3,4-dihydroxy-tetrahydrofuran-2-yl]methoxy-oxido-phosphoryl] [5-(7,8-dimethyl-2,4-dioxo-benzo[g]pteridin-10-yl)-2,3,4-trihydroxy-pentyl] phosphate
   85    90     1     0     0
SMALL
USER_CHARGES

@<TRIPOS>ATOM
      1 PA         21.8380    0.8050   23.1700 P.3       1 FAD         1.5432
      2 O1A        21.3030   -0.5190   22.7220 O.2       1 FAD        -0.8458
      3 O2A        21.2420    1.9380   22.7450 O.3       1 FAD        -0.8458
      4 O5B        21.5190    0.6820   24.6440 O.3       1 FAD        -0.5724
      5 C5B        21.8970    1.6430   25.6850 C.3       1 FAD         0.2123
      6 C4B        20.9970    1.3300   26.9450 C.3       1 FAD         0.0499
      7 O4B        21.4600    2.2240   28.0530 O.3       1 FAD        -0.4009
      8 C3B        19.4600    1.6220   26.8060 C.3       1 FAD         0.1019
      9 O3B        18.6710    0.5790   27.2900 O.3       1 FAD        -0.6061
     10 C2B        19.2980    2.9730   27.5740 C.3       1 FAD         0.1173
     11 O2B        18.0040    3.1220   28.1030 O.3       1 FAD        -0.5868
     12 C1B        20.2760    2.7830   28.6990 C.3       1 FAD         0.3776
     13 N9A        20.8010    4.0200   29.2670 N.pl3     1 FAD        -0.4397
     14 C8A        21.1540    5.1530   28.5750 C.cat     1 FAD         0.1845
     15 N7A        21.6680    6.0970   29.3600 N.ar      1 FAD        -0.2743
     16 C5A        21.5630    5.5850   30.6310 C.ar      1 FAD        -0.1449
     17 C6A        21.9270    6.1470   31.9320 C.cat     1 FAD         0.4834
     18 N6A        22.3520    7.3730   32.0980 N.pl3     1 FAD        -0.8254
     19 N1A        21.5850    5.3620   32.9970 N.pl3     1 FAD        -0.6985
     20 C2A        21.0280    4.1270   32.8470 C.ar      1 FAD         0.6257
     21 N3A        20.7580    3.4920   31.6950 N.ar      1 FAD        -0.5075
     22 C4A        21.0940    4.2440   30.6070 C.ar      1 FAD         0.2876
     23 N1         21.1130   -2.2310   14.3340 N.ar      1 FAD        -0.6480
     24 C2         21.3700   -3.3170   13.6190 C.ar      1 FAD         0.8494
     25 O2         22.4720   -3.7950   13.5580 O.2       1 FAD        -0.5427
     26 N3         20.3350   -4.0620   12.9920 N.am      1 FAD        -0.6179
     27 C4         19.0640   -3.5450   12.8700 C.ar      1 FAD         0.6314
     28 O4         18.2010   -4.1990   12.3240 O.2       1 FAD        -0.6017
     29 C4X        18.8420   -2.2200   13.4310 C.ar      1 FAD         0.2441
     30 N5         17.6210   -1.6430   13.3240 N.ar      1 FAD        -0.4349
     31 C5X        17.4010   -0.5070   14.0540 C.ar      1 FAD         0.0250
     32 C6         16.0920    0.0300   14.0340 C.ar      1 FAD        -0.0413
     33 C7         15.7290    1.0490   14.8790 C.ar      1 FAD        -0.1256
     34 C7M        14.3190    1.5870   14.8590 C.3       1 FAD        -0.0438
     35 C8         16.6660    1.5470   15.8520 C.ar      1 FAD        -0.0183
     36 C8M        16.3340    2.7180   16.7390 C.3       1 FAD        -0.0601
     37 C9         17.9420    0.9810   15.9280 C.ar      1 FAD        -0.1719
     38 C9A        18.3310    0.0200   14.9920 C.ar      1 FAD         0.1753
     39 N10        19.6330   -0.5660   14.9940 N.pl3     1 FAD        -0.5609
     40 C10        19.8920   -1.6530   14.2710 C.ar      1 FAD         0.6007
     41 C1'        20.6850    0.0690   15.8130 C.3       1 FAD         0.1609
     42 C2'        21.0540   -0.7970   17.0450 C.3       1 FAD         0.1347
     43 O2'        19.8580   -1.0730   17.7680 O.3       1 FAD        -0.6181
     44 C3'        21.9860    0.0460   17.9030 C.3       1 FAD         0.1094
     45 O3'        23.1720    0.2940   17.1450 O.3       1 FAD        -0.6207
     46 C4'        22.3780   -0.7320   19.1670 C.3       1 FAD         0.0819
     47 O4'        21.2310   -1.0360   19.9620 O.3       1 FAD        -0.6545
     48 C5'        23.3750    0.1170   19.9180 C.3       1 FAD         0.1635
     49 O5'        23.8840   -0.6520   21.1830 O.3       1 FAD        -0.5814
     50 P          24.5070    0.1030   22.3450 P.3       1 FAD         1.5780
     51 O1P        24.9820   -0.9910   23.3090 O.2       1 FAD        -0.8628
     52 O2P        25.4370    1.0540   21.9500 O.3       1 FAD        -0.8628
     53 O3P        23.4730    0.8660   23.0320 O.3       1 FAD        -0.7763
     54 H51A       22.9631    1.5210   25.9270 H         1 FAD         0.0347
     55 H52A       21.7181    2.6659   25.3221 H         1 FAD         0.0347
     56 H4B        21.1215    0.2571   27.1533 H         1 FAD         0.1058
     57 H3B        19.0330    1.6103   25.7923 H         1 FAD         0.0613
     58 HO3A       18.7161   -0.4115   26.8137 H         1 FAD         0.4789
     59 H2B        19.4002    3.8970   26.9859 H         1 FAD         0.0773
     60 HO2A       17.1481    3.2725   27.4286 H         1 FAD         0.4476
     61 H1B        19.7898    2.2057   29.4992 H         1 FAD         0.1182
     62 H8A        21.0350    5.2920   27.4870 H         1 FAD         0.2706
     63 H61A       22.6212    7.9848   31.2244 H         1 FAD         0.4783
     64 H62A       22.4402    7.7921   33.1112 H         1 FAD         0.4783
     65 H2A        20.7640    3.5760   33.7660 H         1 FAD         0.0915
     66 HN3        20.5432   -5.0668   12.5956 H         1 FAD         0.3427
     67 H6         15.3300   -0.3580   13.3370 H         1 FAD         0.1512
     68 HM71       13.7503    1.0953   14.0560 H         1 FAD         0.0408
     69 HM72       14.3431    2.6721   14.6799 H         1 FAD         0.0408
     70 HM73       13.8360    1.3857   15.8266 H         1 FAD         0.0408
     71 HM81       15.2979    3.0369   16.5527 H         1 FAD         0.0491
     72 HM82       17.0190    3.5502   16.5193 H         1 FAD         0.0491
     73 HM83       16.4427    2.4221   17.7929 H         1 FAD         0.0491
     74 H9         18.6390    1.2910   16.7230 H         1 FAD         0.1666
     75 H1'1       21.5903    0.2076   15.2038 H         1 FAD         0.0988
     76 H1'2       20.3307    1.0469   16.1710 H         1 FAD         0.0988
     77 H2'        21.4878   -1.7791   16.8058 H         1 FAD         0.0597
     78 HO2'       19.0616   -1.6741   17.3048 H         1 FAD         0.4418
     79 H3'        21.5298    1.0156   18.1516 H         1 FAD         0.0500
     80 HO3'       23.1120    0.8433   16.1939 H         1 FAD         0.4305
     81 H4'        22.7871   -1.7307   18.9541 H         1 FAD         0.0421
     82 HO4'       20.4189   -1.6490   19.5440 H         1 FAD         0.4905
     83 H5'1       24.2294    0.3444   19.2636 H         1 FAD         0.0295
     84 H5'2       22.8943    1.0550   20.2327 H         1 FAD         0.0295
     85 H85        21.7570    5.7209   34.0225 H         1 FAD         0.4755
@<TRIPOS>BOND
     1    1    2 2
     2    1    3 1
     3    1    4 1
     4    1   53 1
     5    4    5 1
     6    5    6 1
     7    5   54 1
     8    5   55 1
     9    6    7 1
    10    6    8 1
    11    6   56 1
    12    7   12 1
    13    8    9 1
    14    8   10 1
    15    8   57 1
    16    9   58 1
    17   10   11 1
    18   10   12 1
    19   10   59 1
    20   11   60 1
    21   12   13 1
    22   12   61 1
    23   13   14 ar
    24   13   22 ar
    25   14   15 ar
    26   14   62 1
    27   15   16 ar
    28   16   17 ar
    29   16   22 ar
    30   17   18 1
    31   17   19 ar
    32   18   63 1
    33   18   64 1
    34   19   20 ar
    35   19   85 1
    36   20   21 ar
    37   20   65 1
    38   21   22 ar
    39   23   24 ar
    40   23   40 ar
    41   24   25 2
    42   24   26 ar
    43   26   27 ar
    44   26   66 1
    45   27   28 2
    46   27   29 ar
    47   29   30 ar
    48   29   40 1
    49   30   31 ar
    50   31   32 ar
    51   31   38 ar
    52   32   33 ar
    53   32   67 1
    54   33   34 1
    55   33   35 ar
    56   34   68 1
    57   34   69 1
    58   34   70 1
    59   35   36 1
    60   35   37 ar
    61   36   71 1
    62   36   72 1
    63   36   73 1
    64   37   38 ar
    65   37   74 1
    66   38   39 ar
    67   39   40 ar
    68   39   41 1
    69   41   42 1
    70   41   75 1
    71   41   76 1
    72   42   43 1
    73   42   44 1
    74   42   77 1
    75   43   78 1
    76   44   45 1
    77   44   46 1
    78   44   79 1
    79   45   80 1
    80   46   47 1
    81   46   48 1
    82   46   81 1
    83   47   82 1
    84   48   49 1
    85   48   83 1
    86   48   84 1
    87   49   50 1
    88   50   51 2
    89   50   52 1
    90   50   53 1
@<TRIPOS>SUBSTRUCTURE
     1 FAD         1 GROUP   0 A     ****
@<TRIPOS>MOLECULE
[5-(6-amino-1,8-dihydropurine-6,8-diylium-7-id-9-yl)-3,4-dihydroxy-tetrahydrofuran-2-yl]methyl [[5-(7,8-dimethyl-2,4-dioxo-benzo[g]pteridin-10-yl)-2,3,4-trihydroxy-pentoxy]-hydroxy-phosphoryl] phosphate
   86    91     1     0     0
SMALL
USER_CHARGES

@<TRIPOS>ATOM
      1 PA         21.8380    0.8050   23.1700 P.3       1 FAD         1.5429
      2 O1A        21.3030   -0.5190   22.7220 O.2       1 FAD        -0.8112
      3 O2A        21.2420    1.9380   22.7450 O.3       1 FAD        -0.8112
      4 O5B        21.5190    0.6820   24.6440 O.3       1 FAD        -0.5659
      5 C5B        21.8970    1.6430   25.6850 C.3       1 FAD         0.1680
      6 C4B        20.9970    1.3300   26.9450 C.3       1 FAD         0.1235
      7 O4B        21.4600    2.2240   28.0530 O.3       1 FAD        -0.3769
      8 C3B        19.4600    1.6220   26.8060 C.3       1 FAD         0.0865
      9 O3B        18.6710    0.5790   27.2900 O.3       1 FAD        -0.5766
     10 C2B        19.2980    2.9730   27.5740 C.3       1 FAD         0.0631
     11 O2B        18.0040    3.1220   28.1030 O.3       1 FAD        -0.5849
     12 C1B        20.2760    2.7830   28.6990 C.3       1 FAD         0.4186
     13 N9A        20.8010    4.0200   29.2670 N.pl3     1 FAD        -0.4596
     14 C8A        21.1540    5.1530   28.5750 C.cat     1 FAD         0.1938
     15 N7A        21.6680    6.0970   29.3600 N.ar      1 FAD        -0.2463
     16 C5A        21.5630    5.5850   30.6310 C.ar      1 FAD        -0.1389
     17 C6A        21.9270    6.1470   31.9320 C.cat     1 FAD         0.4859
     18 N6A        22.3520    7.3730   32.0980 N.pl3     1 FAD        -0.8154
     19 N1A        21.5850    5.3620   32.9970 N.pl3     1 FAD        -0.6977
     20 C2A        21.0280    4.1270   32.8470 C.ar      1 FAD         0.6256
     21 N3A        20.7580    3.4920   31.6950 N.ar      1 FAD        -0.5147
     22 C4A        21.0940    4.2440   30.6070 C.ar      1 FAD         0.2807
     23 N1         21.1130   -2.2310   14.3340 N.ar      1 FAD        -0.6882
     24 C2         21.3700   -3.3170   13.6190 C.ar      1 FAD         0.8536
     25 O2         22.4720   -3.7950   13.5580 O.2       1 FAD        -0.5829
     26 N3         20.3350   -4.0620   12.9920 N.am      1 FAD        -0.6163
     27 C4         19.0640   -3.5450   12.8700 C.ar      1 FAD         0.6310
     28 O4         18.2010   -4.1990   12.3240 O.2       1 FAD        -0.5795
     29 C4X        18.8420   -2.2200   13.4310 C.ar      1 FAD         0.2451
     30 N5         17.6210   -1.6430   13.3240 N.ar      1 FAD        -0.4232
     31 C5X        17.4010   -0.5070   14.0540 C.ar      1 FAD         0.0317
     32 C6         16.0920    0.0300   14.0340 C.ar      1 FAD        -0.0372
     33 C7         15.7290    1.0490   14.8790 C.ar      1 FAD        -0.1151
     34 C7M        14.3190    1.5870   14.8590 C.3       1 FAD        -0.0501
     35 C8         16.6660    1.5470   15.8520 C.ar      1 FAD        -0.0103
     36 C8M        16.3340    2.7180   16.7390 C.3       1 FAD        -0.0639
     37 C9         17.9420    0.9810   15.9280 C.ar      1 FAD        -0.1849
     38 C9A        18.3310    0.0200   14.9920 C.ar      1 FAD         0.1716
     39 N10        19.6330   -0.5660   14.9940 N.pl3     1 FAD        -0.5562
     40 C10        19.8920   -1.6530   14.2710 C.ar      1 FAD         0.6190
     41 C1'        20.6850    0.0690   15.8130 C.3       1 FAD         0.1623
     42 C2'        21.0540   -0.7970   17.0450 C.3       1 FAD         0.1053
     43 O2'        19.8580   -1.0730   17.7680 O.3       1 FAD        -0.5684
     44 C3'        21.9860    0.0460   17.9030 C.3       1 FAD         0.1013
     45 O3'        23.1720    0.2940   17.1450 O.3       1 FAD        -0.6007
     46 C4'        22.3780   -0.7320   19.1670 C.3       1 FAD         0.1193
     47 O4'        21.2310   -1.0360   19.9620 O.3       1 FAD        -0.6109
     48 C5'        23.3750    0.1170   19.9180 C.3       1 FAD         0.1543
     49 O5'        23.8840   -0.6520   21.1830 O.3       1 FAD        -0.6008
     50 P          24.5070    0.1030   22.3450 P.3       1 FAD         1.7951
     51 O1P        24.9820   -0.9910   23.3090 O.2       1 FAD        -0.8613
     52 O2P        25.4370    1.0540   21.9500 O.3       1 FAD        -0.8149
     53 O3P        23.4730    0.8660   23.0320 O.3       1 FAD        -0.7946
     54 H51A       22.9631    1.5210   25.9270 H         1 FAD         0.0408
     55 H52A       21.7181    2.6659   25.3221 H         1 FAD         0.0408
     56 H4B        21.1215    0.2571   27.1533 H         1 FAD         0.1318
     57 H3B        19.0330    1.6103   25.7923 H         1 FAD         0.0786
     58 HO3A       18.7161   -0.4115   26.8137 H         1 FAD         0.4127
     59 H2B        19.4002    3.8970   26.9859 H         1 FAD         0.0702
     60 HO2A       17.1481    3.2725   27.4286 H         1 FAD         0.4184
     61 H1B        19.7898    2.2057   29.4992 H         1 FAD         0.1256
     62 H8A        21.0350    5.2920   27.4870 H         1 FAD         0.2809
     63 H61A       22.6212    7.9848   31.2244 H         1 FAD         0.4832
     64 H62A       22.4402    7.7921   33.1112 H         1 FAD         0.4832
     65 H2A        20.7640    3.5760   33.7660 H         1 FAD         0.0942
     66 HN3        20.5432   -5.0668   12.5956 H         1 FAD         0.3462
     67 H6         15.3300   -0.3580   13.3370 H         1 FAD         0.1599
     68 HM71       13.7503    1.0953   14.0560 H         1 FAD         0.0470
     69 HM72       14.3431    2.6721   14.6799 H         1 FAD         0.0470
     70 HM73       13.8360    1.3857   15.8266 H         1 FAD         0.0470
     71 HM81       15.2979    3.0369   16.5527 H         1 FAD         0.0529
     72 HM82       17.0190    3.5502   16.5193 H         1 FAD         0.0529
     73 HM83       16.4427    2.4221   17.7929 H         1 FAD         0.0529
     74 H9         18.6390    1.2910   16.7230 H         1 FAD         0.1577
     75 H1'1       21.5903    0.2076   15.2038 H         1 FAD         0.0919
     76 H1'2       20.3307    1.0469   16.1710 H         1 FAD         0.0919
     77 H2'        21.4878   -1.7791   16.8058 H         1 FAD         0.0709
     78 HO2'       19.0616   -1.6741   17.3048 H         1 FAD         0.4302
     79 H3'        21.5298    1.0156   18.1516 H         1 FAD         0.0949
     80 HO3'       23.1120    0.8433   16.1939 H         1 FAD         0.4031
     81 H4'        22.7871   -1.7307   18.9541 H         1 FAD         0.0560
     82 HO4'       20.4189   -1.6490   19.5440 H         1 FAD         0.4539
     83 H5'1       24.2294    0.3444   19.2636 H         1 FAD         0.0462
     84 H5'2       22.8943    1.0550   20.2327 H         1 FAD         0.0462
     85 HOP2       26.3384    0.7464   21.3998 H         1 FAD         0.4943
     86 H86        21.7570    5.7209   34.0225 H         1 FAD         0.4773
@<TRIPOS>BOND
     1    1    2 2
     2    1    3 1
     3    1    4 1
     4    1   53 1
     5    4    5 1
     6    5    6 1
     7    5   54 1
     8    5   55 1
     9    6    7 1
    10    6    8 1
    11    6   56 1
    12    7   12 1
    13    8    9 1
    14    8   10 1
    15    8   57 1
    16    9   58 1
    17   10   11 1
    18   10   12 1
    19   10   59 1
    20   11   60 1
    21   12   13 1
    22   12   61 1
    23   13   14 ar
    24   13   22 ar
    25   14   15 ar
    26   14   62 1
    27   15   16 ar
    28   16   17 ar
    29   16   22 ar
    30   17   18 1
    31   17   19 ar
    32   18   63 1
    33   18   64 1
    34   19   20 ar
    35   19   86 1
    36   20   21 ar
    37   20   65 1
    38   21   22 ar
    39   23   24 ar
    40   23   40 ar
    41   24   25 2
    42   24   26 ar
    43   26   27 ar
    44   26   66 1
    45   27   28 2
    46   27   29 ar
    47   29   30 ar
    48   29   40 1
    49   30   31 ar
    50   31   32 ar
    51   31   38 ar
    52   32   33 ar
    53   32   67 1
    54   33   34 1
    55   33   35 ar
    56   34   68 1
    57   34   69 1
    58   34   70 1
    59   35   36 1
    60   35   37 ar
    61   36   71 1
    62   36   72 1
    63   36   73 1
    64   37   38 ar
    65   37   74 1
    66   38   39 ar
    67   39   40 ar
    68   39   41 1
    69   41   42 1
    70   41   75 1
    71   41   76 1
    72   42   43 1
    73   42   44 1
    74   42   77 1
    75   43   78 1
    76   44   45 1
    77   44   46 1
    78   44   79 1
    79   45   80 1
    80   46   47 1
    81   46   48 1
    82   46   81 1
    83   47   82 1
    84   48   49 1
    85   48   83 1
    86   48   84 1
    87   49   50 1
    88   50   51 2
    89   50   52 1
    90   50   53 1
    91   52   85 1
@<TRIPOS>SUBSTRUCTURE
     1 FAD         1 GROUP   0 A     ****
@<TRIPOS>MOLECULE
[[5-(6-amino-1,8-dihydropurine-6,8-diylium-7-id-9-yl)-3,4-dihydroxy-tetrahydrofuran-2-yl]methoxy-hydroxy-phosphoryl] [5-(7,8-dimethyl-2,4-dioxo-benzo[g]pteridin-10-yl)-2,3,4-trihydroxy-pentyl] phosphate
   86    91     1     0     0
SMALL
USER_CHARGES

@<TRIPOS>ATOM
      1 PA         21.8380    0.8050   23.1700 P.3       1 FAD         1.7524
      2 O1A        21.3030   -0.5190   22.7220 O.2       1 FAD        -0.8042
      3 O2A        21.2420    1.9380   22.7450 O.3       1 FAD        -0.8206
      4 O5B        21.5190    0.6820   24.6440 O.3       1 FAD        -0.5646
      5 C5B        21.8970    1.6430   25.6850 C.3       1 FAD         0.1520
      6 C4B        20.9970    1.3300   26.9450 C.3       1 FAD         0.0899
      7 O4B        21.4600    2.2240   28.0530 O.3       1 FAD        -0.3719
      8 C3B        19.4600    1.6220   26.8060 C.3       1 FAD         0.1216
      9 O3B        18.6710    0.5790   27.2900 O.3       1 FAD        -0.5629
     10 C2B        19.2980    2.9730   27.5740 C.3       1 FAD         0.1147
     11 O2B        18.0040    3.1220   28.1030 O.3       1 FAD        -0.5387
     12 C1B        20.2760    2.7830   28.6990 C.3       1 FAD         0.3730
     13 N9A        20.8010    4.0200   29.2670 N.pl3     1 FAD        -0.4619
     14 C8A        21.1540    5.1530   28.5750 C.cat     1 FAD         0.2039
     15 N7A        21.6680    6.0970   29.3600 N.ar      1 FAD        -0.2436
     16 C5A        21.5630    5.5850   30.6310 C.ar      1 FAD        -0.1266
     17 C6A        21.9270    6.1470   31.9320 C.cat     1 FAD         0.4888
     18 N6A        22.3520    7.3730   32.0980 N.pl3     1 FAD        -0.8116
     19 N1A        21.5850    5.3620   32.9970 N.pl3     1 FAD        -0.6969
     20 C2A        21.0280    4.1270   32.8470 C.ar      1 FAD         0.6319
     21 N3A        20.7580    3.4920   31.6950 N.ar      1 FAD        -0.5326
     22 C4A        21.0940    4.2440   30.6070 C.ar      1 FAD         0.2685
     23 N1         21.1130   -2.2310   14.3340 N.ar      1 FAD        -0.6838
     24 C2         21.3700   -3.3170   13.6190 C.ar      1 FAD         0.8512
     25 O2         22.4720   -3.7950   13.5580 O.2       1 FAD        -0.5887
     26 N3         20.3350   -4.0620   12.9920 N.am      1 FAD        -0.6165
     27 C4         19.0640   -3.5450   12.8700 C.ar      1 FAD         0.6307
     28 O4         18.2010   -4.1990   12.3240 O.2       1 FAD        -0.5823
     29 C4X        18.8420   -2.2200   13.4310 C.ar      1 FAD         0.2413
     30 N5         17.6210   -1.6430   13.3240 N.ar      1 FAD        -0.4232
     31 C5X        17.4010   -0.5070   14.0540 C.ar      1 FAD         0.0301
     32 C6         16.0920    0.0300   14.0340 C.ar      1 FAD        -0.0406
     33 C7         15.7290    1.0490   14.8790 C.ar      1 FAD        -0.1152
     34 C7M        14.3190    1.5870   14.8590 C.3       1 FAD        -0.0500
     35 C8         16.6660    1.5470   15.8520 C.ar      1 FAD        -0.0067
     36 C8M        16.3340    2.7180   16.7390 C.3       1 FAD        -0.0656
     37 C9         17.9420    0.9810   15.9280 C.ar      1 FAD        -0.1797
     38 C9A        18.3310    0.0200   14.9920 C.ar      1 FAD         0.1694
     39 N10        19.6330   -0.5660   14.9940 N.pl3     1 FAD        -0.5550
     40 C10        19.8920   -1.6530   14.2710 C.ar      1 FAD         0.6223
     41 C1'        20.6850    0.0690   15.8130 C.3       1 FAD         0.2045
     42 C2'        21.0540   -0.7970   17.0450 C.3       1 FAD         0.0849
     43 O2'        19.8580   -1.0730   17.7680 O.3       1 FAD        -0.5931
     44 C3'        21.9860    0.0460   17.9030 C.3       1 FAD         0.1085
     45 O3'        23.1720    0.2940   17.1450 O.3       1 FAD        -0.5925
     46 C4'        22.3780   -0.7320   19.1670 C.3       1 FAD         0.1397
     47 O4'        21.2310   -1.0360   19.9620 O.3       1 FAD        -0.6414
     48 C5'        23.3750    0.1170   19.9180 C.3       1 FAD         0.1505
     49 O5'        23.8840   -0.6520   21.1830 O.3       1 FAD        -0.6235
     50 P          24.5070    0.1030   22.3450 P.3       1 FAD         1.5589
     51 O1P        24.9820   -0.9910   23.3090 O.2       1 FAD        -0.8182
     52 O2P        25.4370    1.0540   21.9500 O.3       1 FAD        -0.8182
     53 O3P        23.4730    0.8660   23.0320 O.3       1 FAD        -0.8083
     54 HOA2       20.1466    2.0306   22.7825 H         1 FAD         0.5010
     55 H51A       22.9631    1.5210   25.9270 H         1 FAD         0.0589
     56 H52A       21.7181    2.6659   25.3221 H         1 FAD         0.0589
     57 H4B        21.1215    0.2571   27.1533 H         1 FAD         0.1097
     58 H3B        19.0330    1.6103   25.7923 H         1 FAD         0.0773
     59 HO3A       18.7161   -0.4115   26.8137 H         1 FAD         0.4125
     60 H2B        19.4002    3.8970   26.9859 H         1 FAD         0.0729
     61 HO2A       17.1481    3.2725   27.4286 H         1 FAD         0.4040
     62 H1B        19.7898    2.2057   29.4992 H         1 FAD         0.1239
     63 H8A        21.0350    5.2920   27.4870 H         1 FAD         0.2729
     64 H61A       22.6212    7.9848   31.2244 H         1 FAD         0.4853
     65 H62A       22.4402    7.7921   33.1112 H         1 FAD         0.4853
     66 H2A        20.7640    3.5760   33.7660 H         1 FAD         0.0958
     67 HN3        20.5432   -5.0668   12.5956 H         1 FAD         0.3447
     68 H6         15.3300   -0.3580   13.3370 H         1 FAD         0.1586
     69 HM71       13.7503    1.0953   14.0560 H         1 FAD         0.0463
     70 HM72       14.3431    2.6721   14.6799 H         1 FAD         0.0463
     71 HM73       13.8360    1.3857   15.8266 H         1 FAD         0.0463
     72 HM81       15.2979    3.0369   16.5527 H         1 FAD         0.0537
     73 HM82       17.0190    3.5502   16.5193 H         1 FAD         0.0537
     74 HM83       16.4427    2.4221   17.7929 H         1 FAD         0.0537
     75 H9         18.6390    1.2910   16.7230 H         1 FAD         0.1695
     76 H1'1       21.5903    0.2076   15.2038 H         1 FAD         0.0994
     77 H1'2       20.3307    1.0469   16.1710 H         1 FAD         0.0994
     78 H2'        21.4878   -1.7791   16.8058 H         1 FAD         0.0689
     79 HO2'       19.0616   -1.6741   17.3048 H         1 FAD         0.4036
     80 H3'        21.5298    1.0156   18.1516 H         1 FAD         0.0402
     81 HO3'       23.1120    0.8433   16.1939 H         1 FAD         0.4223
     82 H4'        22.7871   -1.7307   18.9541 H         1 FAD         0.0526
     83 HO4'       20.4189   -1.6490   19.5440 H         1 FAD         0.4391
     84 H5'1       24.2294    0.3444   19.2636 H         1 FAD         0.0574
     85 H5'2       22.8943    1.0550   20.2327 H         1 FAD         0.0574
     86 H86        21.7570    5.7209   34.0225 H         1 FAD         0.4790
@<TRIPOS>BOND
     1    1    2 2
     2    1    3 1
     3    1    4 1
     4    1   53 1
     5    3   54 1
     6    4    5 1
     7    5    6 1
     8    5   55 1
     9    5   56 1
    10    6    7 1
    11    6    8 1
    12    6   57 1
    13    7   12 1
    14    8    9 1
    15    8   10 1
    16    8   58 1
    17    9   59 1
    18   10   11 1
    19   10   12 1
    20   10   60 1
    21   11   61 1
    22   12   13 1
    23   12   62 1
    24   13   14 ar
    25   13   22 ar
    26   14   15 ar
    27   14   63 1
    28   15   16 ar
    29   16   17 ar
    30   16   22 ar
    31   17   18 1
    32   17   19 ar
    33   18   64 1
    34   18   65 1
    35   19   20 ar
    36   19   86 1
    37   20   21 ar
    38   20   66 1
    39   21   22 ar
    40   23   24 ar
    41   23   40 ar
    42   24   25 2
    43   24   26 ar
    44   26   27 ar
    45   26   67 1
    46   27   28 2
    47   27   29 ar
    48   29   30 ar
    49   29   40 1
    50   30   31 ar
    51   31   32 ar
    52   31   38 ar
    53   32   33 ar
    54   32   68 1
    55   33   34 1
    56   33   35 ar
    57   34   69 1
    58   34   70 1
    59   34   71 1
    60   35   36 1
    61   35   37 ar
    62   36   72 1
    63   36   73 1
    64   36   74 1
    65   37   38 ar
    66   37   75 1
    67   38   39 ar
    68   39   40 ar
    69   39   41 1
    70   41   42 1
    71   41   76 1
    72   41   77 1
    73   42   43 1
    74   42   44 1
    75   42   78 1
    76   43   79 1
    77   44   45 1
    78   44   46 1
    79   44   80 1
    80   45   81 1
    81   46   47 1
    82   46   48 1
    83   46   82 1
    84   47   83 1
    85   48   49 1
    86   48   84 1
    87   48   85 1
    88   49   50 1
    89   50   51 2
    90   50   52 1
    91   50   53 1
@<TRIPOS>SUBSTRUCTURE
     1 FAD         1 GROUP   0 A     ****
@<TRIPOS>MOLECULE
[[5-(6-amino-7,8-dihydropurin-8-ylium-9-yl)-3,4-dihydroxy-tetrahydrofuran-2-yl]methoxy-oxido-phosphoryl] [5-(7,8-dimethyl-2,4-dioxo-benzo[g]pteridin-10-yl)-2,3,4-trihydroxy-pentyl] phosphate
   85    90     1     0     0
SMALL
USER_CHARGES

@<TRIPOS>ATOM
      1 PA         21.8380    0.8050   23.1700 P.3       1 FAD         1.5503
      2 O1A        21.3030   -0.5190   22.7220 O.2       1 FAD        -0.8479
      3 O2A        21.2420    1.9380   22.7450 O.3       1 FAD        -0.8479
      4 O5B        21.5190    0.6820   24.6440 O.3       1 FAD        -0.5675
      5 C5B        21.8970    1.6430   25.6850 C.3       1 FAD         0.2361
      6 C4B        20.9970    1.3300   26.9450 C.3       1 FAD         0.0917
      7 O4B        21.4600    2.2240   28.0530 O.3       1 FAD        -0.3631
      8 C3B        19.4600    1.6220   26.8060 C.3       1 FAD         0.0759
      9 O3B        18.6710    0.5790   27.2900 O.3       1 FAD        -0.5648
     10 C2B        19.2980    2.9730   27.5740 C.3       1 FAD         0.0767
     11 O2B        18.0040    3.1220   28.1030 O.3       1 FAD        -0.5800
     12 C1B        20.2760    2.7830   28.6990 C.3       1 FAD         0.3816
     13 N9A        20.8010    4.0200   29.2670 N.pl3     1 FAD        -0.5633
     14 C8A        21.1540    5.1530   28.5750 C.cat     1 FAD         0.3037
     15 N7A        21.6680    6.0970   29.3600 N.pl3     1 FAD        -0.5196
     16 C5A        21.5630    5.5850   30.6310 C.ar      1 FAD        -0.2703
     17 C6A        21.9270    6.1470   31.9320 C.ar      1 FAD         0.7505
     18 N6A        22.3520    7.3730   32.0980 N.pl3     1 FAD        -0.9412
     19 N1A        21.5850    5.3620   32.9970 N.ar      1 FAD        -0.7528
     20 C2A        21.0280    4.1270   32.8470 C.ar      1 FAD         0.7057
     21 N3A        20.7580    3.4920   31.6950 N.ar      1 FAD        -0.6807
     22 C4A        21.0940    4.2440   30.6070 C.ar      1 FAD         0.6230
     23 N1         21.1130   -2.2310   14.3340 N.ar      1 FAD        -0.6898
     24 C2         21.3700   -3.3170   13.6190 C.ar      1 FAD         0.8549
     25 O2         22.4720   -3.7950   13.5580 O.2       1 FAD        -0.6005
     26 N3         20.3350   -4.0620   12.9920 N.am      1 FAD        -0.6218
     27 C4         19.0640   -3.5450   12.8700 C.ar      1 FAD         0.6326
     28 O4         18.2010   -4.1990   12.3240 O.2       1 FAD        -0.5978
     29 C4X        18.8420   -2.2200   13.4310 C.ar      1 FAD         0.2316
     30 N5         17.6210   -1.6430   13.3240 N.ar      1 FAD        -0.4249
     31 C5X        17.4010   -0.5070   14.0540 C.ar      1 FAD         0.0227
     32 C6         16.0920    0.0300   14.0340 C.ar      1 FAD        -0.0490
     33 C7         15.7290    1.0490   14.8790 C.ar      1 FAD        -0.1179
     34 C7M        14.3190    1.5870   14.8590 C.3       1 FAD        -0.0486
     35 C8         16.6660    1.5470   15.8520 C.ar      1 FAD        -0.0029
     36 C8M        16.3340    2.7180   16.7390 C.3       1 FAD        -0.0694
     37 C9         17.9420    0.9810   15.9280 C.ar      1 FAD        -0.1751
     38 C9A        18.3310    0.0200   14.9920 C.ar      1 FAD         0.1726
     39 N10        19.6330   -0.5660   14.9940 N.pl3     1 FAD        -0.5423
     40 C10        19.8920   -1.6530   14.2710 C.ar      1 FAD         0.6236
     41 C1'        20.6850    0.0690   15.8130 C.3       1 FAD         0.1903
     42 C2'        21.0540   -0.7970   17.0450 C.3       1 FAD         0.0832
     43 O2'        19.8580   -1.0730   17.7680 O.3       1 FAD        -0.6026
     44 C3'        21.9860    0.0460   17.9030 C.3       1 FAD         0.1060
     45 O3'        23.1720    0.2940   17.1450 O.3       1 FAD        -0.5878
     46 C4'        22.3780   -0.7320   19.1670 C.3       1 FAD         0.1304
     47 O4'        21.2310   -1.0360   19.9620 O.3       1 FAD        -0.6588
     48 C5'        23.3750    0.1170   19.9180 C.3       1 FAD         0.1587
     49 O5'        23.8840   -0.6520   21.1830 O.3       1 FAD        -0.5901
     50 P          24.5070    0.1030   22.3450 P.3       1 FAD         1.5641
     51 O1P        24.9820   -0.9910   23.3090 O.2       1 FAD        -0.8600
     52 O2P        25.4370    1.0540   21.9500 O.3       1 FAD        -0.8600
     53 O3P        23.4730    0.8660   23.0320 O.3       1 FAD        -0.7981
     54 H51A       22.9631    1.5210   25.9270 H         1 FAD         0.0188
     55 H52A       21.7181    2.6659   25.3221 H         1 FAD         0.0188
     56 H4B        21.1215    0.2571   27.1533 H         1 FAD         0.1277
     57 H3B        19.0330    1.6103   25.7923 H         1 FAD         0.0671
     58 HO3A       18.7161   -0.4115   26.8137 H         1 FAD         0.4145
     59 H2B        19.4002    3.8970   26.9859 H         1 FAD         0.0816
     60 HO2A       17.1481    3.2725   27.4286 H         1 FAD         0.4414
     61 H1B        19.7898    2.2057   29.4992 H         1 FAD         0.1400
     62 H8A        21.0350    5.2920   27.4870 H         1 FAD         0.3087
     63 H61A       22.6212    7.9848   31.2244 H         1 FAD         0.4455
     64 H62A       22.4402    7.7921   33.1112 H         1 FAD         0.4455
     65 H2A        20.7640    3.5760   33.7660 H         1 FAD         0.0797
     66 HN3        20.5432   -5.0668   12.5956 H         1 FAD         0.3372
     67 H6         15.3300   -0.3580   13.3370 H         1 FAD         0.1509
     68 HM71       13.7503    1.0953   14.0560 H         1 FAD         0.0443
     69 HM72       14.3431    2.6721   14.6799 H         1 FAD         0.0443
     70 HM73       13.8360    1.3857   15.8266 H         1 FAD         0.0443
     71 HM81       15.2979    3.0369   16.5527 H         1 FAD         0.0595
     72 HM82       17.0190    3.5502   16.5193 H         1 FAD         0.0595
     73 HM83       16.4427    2.4221   17.7929 H         1 FAD         0.0595
     74 H9         18.6390    1.2910   16.7230 H         1 FAD         0.1900
     75 H1'1       21.5903    0.2076   15.2038 H         1 FAD         0.1073
     76 H1'2       20.3307    1.0469   16.1710 H         1 FAD         0.1073
     77 H2'        21.4878   -1.7791   16.8058 H         1 FAD         0.0694
     78 HO2'       19.0616   -1.6741   17.3048 H         1 FAD         0.4030
     79 H3'        21.5298    1.0156   18.1516 H         1 FAD         0.0505
     80 HO3'       23.1120    0.8433   16.1939 H         1 FAD         0.4073
     81 H4'        22.7871   -1.7307   18.9541 H         1 FAD         0.0443
     82 HO4'       20.4189   -1.6490   19.5440 H         1 FAD         0.4469
     83 H5'1       24.2294    0.3444   19.2636 H         1 FAD         0.0553
     84 H5'2       22.8943    1.0550   20.2327 H         1 FAD         0.0553
     85 H85        22.0513    7.0295   28.9202 H         1 FAD         0.5050
@<TRIPOS>BOND
     1    1    2 2
     2    1    3 1
     3    1    4 1
     4    1   53 1
     5    4    5 1
     6    5    6 1
     7    5   54 1
     8    5   55 1
     9    6    7 1
    10    6    8 1
    11    6   56 1
    12    7   12 1
    13    8    9 1
    14    8   10 1
    15    8   57 1
    16    9   58 1
    17   10   11 1
    18   10   12 1
    19   10   59 1
    20   11   60 1
    21   12   13 1
    22   12   61 1
    23   13   14 ar
    24   13   22 ar
    25   14   15 ar
    26   14   62 1
    27   15   16 ar
    28   15   85 1
    29   16   17 ar
    30   16   22 ar
    31   17   18 1
    32   17   19 ar
    33   18   63 1
    34   18   64 1
    35   19   20 ar
    36   20   21 ar
    37   20   65 1
    38   21   22 ar
    39   23   24 ar
    40   23   40 ar
    41   24   25 2
    42   24   26 ar
    43   26   27 ar
    44   26   66 1
    45   27   28 2
    46   27   29 ar
    47   29   30 ar
    48   29   40 1
    49   30   31 ar
    50   31   32 ar
    51   31   38 ar
    52   32   33 ar
    53   32   67 1
    54   33   34 1
    55   33   35 ar
    56   34   68 1
    57   34   69 1
    58   34   70 1
    59   35   36 1
    60   35   37 ar
    61   36   71 1
    62   36   72 1
    63   36   73 1
    64   37   38 ar
    65   37   74 1
    66   38   39 ar
    67   39   40 ar
    68   39   41 1
    69   41   42 1
    70   41   75 1
    71   41   76 1
    72   42   43 1
    73   42   44 1
    74   42   77 1
    75   43   78 1
    76   44   45 1
    77   44   46 1
    78   44   79 1
    79   45   80 1
    80   46   47 1
    81   46   48 1
    82   46   81 1
    83   47   82 1
    84   48   49 1
    85   48   83 1
    86   48   84 1
    87   49   50 1
    88   50   51 2
    89   50   52 1
    90   50   53 1
@<TRIPOS>SUBSTRUCTURE
     1 FAD         1 GROUP   0 A     ****
@<TRIPOS>MOLECULE
[[5-(6-aminopurin-9-yl)-3,4-dihydroxy-tetrahydrofuran-2-yl]methoxy-hydroxy-phosphoryl] [5-(7,8-dimethyl-2,4-dioxo-benzo[g]pteridin-10-yl)-2,3,4-trihydroxy-pentyl] hydrogen phosphate
   86    91     1     0     0
SMALL
USER_CHARGES

@<TRIPOS>ATOM
      1 PA         21.8380    0.8050   23.1700 P.3       1 FAD         1.7977
      2 O1A        21.3030   -0.5190   22.7220 O.2       1 FAD        -0.7830
      3 O2A        21.2420    1.9380   22.7450 O.3       1 FAD        -0.8071
      4 O5B        21.5190    0.6820   24.6440 O.3       1 FAD        -0.5661
      5 C5B        21.8970    1.6430   25.6850 C.3       1 FAD         0.1619
      6 C4B        20.9970    1.3300   26.9450 C.3       1 FAD         0.0944
      7 O4B        21.4600    2.2240   28.0530 O.3       1 FAD        -0.3883
      8 C3B        19.4600    1.6220   26.8060 C.3       1 FAD         0.1164
      9 O3B        18.6710    0.5790   27.2900 O.3       1 FAD        -0.5549
     10 C2B        19.2980    2.9730   27.5740 C.3       1 FAD         0.1192
     11 O2B        18.0040    3.1220   28.1030 O.3       1 FAD        -0.5568
     12 C1B        20.2760    2.7830   28.6990 C.3       1 FAD         0.3894
     13 N9A        20.8010    4.0200   29.2670 N.pl3     1 FAD        -0.7050
     14 C8A        21.1540    5.1530   28.5750 C.ar      1 FAD         0.5400
     15 N7A        21.6680    6.0970   29.3600 N.ar      1 FAD        -0.5456
     16 C5A        21.5630    5.5850   30.6310 C.ar      1 FAD        -0.2280
     17 C6A        21.9270    6.1470   31.9320 C.ar      1 FAD         0.7629
     18 N6A        22.3520    7.3730   32.0980 N.pl3     1 FAD        -0.9543
     19 N1A        21.5850    5.3620   32.9970 N.ar      1 FAD        -0.7939
     20 C2A        21.0280    4.1270   32.8470 C.ar      1 FAD         0.6926
     21 N3A        20.7580    3.4920   31.6950 N.ar      1 FAD        -0.7482
     22 C4A        21.0940    4.2440   30.6070 C.ar      1 FAD         0.5828
     23 N1         21.1130   -2.2310   14.3340 N.ar      1 FAD        -0.7155
     24 C2         21.3700   -3.3170   13.6190 C.ar      1 FAD         0.8510
     25 O2         22.4720   -3.7950   13.5580 O.2       1 FAD        -0.5815
     26 N3         20.3350   -4.0620   12.9920 N.am      1 FAD        -0.6139
     27 C4         19.0640   -3.5450   12.8700 C.ar      1 FAD         0.6298
     28 O4         18.2010   -4.1990   12.3240 O.2       1 FAD        -0.5680
     29 C4X        18.8420   -2.2200   13.4310 C.ar      1 FAD         0.2404
     30 N5         17.6210   -1.6430   13.3240 N.ar      1 FAD        -0.4155
     31 C5X        17.4010   -0.5070   14.0540 C.ar      1 FAD         0.0328
     32 C6         16.0920    0.0300   14.0340 C.ar      1 FAD        -0.0386
     33 C7         15.7290    1.0490   14.8790 C.ar      1 FAD        -0.1064
     34 C7M        14.3190    1.5870   14.8590 C.3       1 FAD        -0.0542
     35 C8         16.6660    1.5470   15.8520 C.ar      1 FAD        -0.0054
     36 C8M        16.3340    2.7180   16.7390 C.3       1 FAD        -0.0664
     37 C9         17.9420    0.9810   15.9280 C.ar      1 FAD        -0.1882
     38 C9A        18.3310    0.0200   14.9920 C.ar      1 FAD         0.1583
     39 N10        19.6330   -0.5660   14.9940 N.pl3     1 FAD        -0.5700
     40 C10        19.8920   -1.6530   14.2710 C.ar      1 FAD         0.6125
     41 C1'        20.6850    0.0690   15.8130 C.3       1 FAD         0.1669
     42 C2'        21.0540   -0.7970   17.0450 C.3       1 FAD         0.1020
     43 O2'        19.8580   -1.0730   17.7680 O.3       1 FAD        -0.5760
     44 C3'        21.9860    0.0460   17.9030 C.3       1 FAD         0.1424
     45 O3'        23.1720    0.2940   17.1450 O.3       1 FAD        -0.5881
     46 C4'        22.3780   -0.7320   19.1670 C.3       1 FAD         0.1176
     47 O4'        21.2310   -1.0360   19.9620 O.3       1 FAD        -0.5766
     48 C5'        23.3750    0.1170   19.9180 C.3       1 FAD         0.1358
     49 O5'        23.8840   -0.6520   21.1830 O.3       1 FAD        -0.6190
     50 P          24.5070    0.1030   22.3450 P.3       1 FAD         1.8006
     51 O1P        24.9820   -0.9910   23.3090 O.2       1 FAD        -0.8329
     52 O2P        25.4370    1.0540   21.9500 O.3       1 FAD        -0.7860
     53 O3P        23.4730    0.8660   23.0320 O.3       1 FAD        -0.8051
     54 HOA2       20.1466    2.0306   22.7825 H         1 FAD         0.5068
     55 H51A       22.9631    1.5210   25.9270 H         1 FAD         0.0563
     56 H52A       21.7181    2.6659   25.3221 H         1 FAD         0.0563
     57 H4B        21.1215    0.2571   27.1533 H         1 FAD         0.0945
     58 H3B        19.0330    1.6103   25.7923 H         1 FAD         0.0649
     59 HO3A       18.7161   -0.4115   26.8137 H         1 FAD         0.4042
     60 H2B        19.4002    3.8970   26.9859 H         1 FAD         0.0544
     61 HO2A       17.1481    3.2725   27.4286 H         1 FAD         0.4274
     62 H1B        19.7898    2.2057   29.4992 H         1 FAD         0.1219
     63 H8A        21.0350    5.2920   27.4870 H         1 FAD         0.0826
     64 H61A       22.6212    7.9848   31.2244 H         1 FAD         0.4492
     65 H62A       22.4402    7.7921   33.1112 H         1 FAD         0.4492
     66 H2A        20.7640    3.5760   33.7660 H         1 FAD         0.0550
     67 HN3        20.5432   -5.0668   12.5956 H         1 FAD         0.3506
     68 H6         15.3300   -0.3580   13.3370 H         1 FAD         0.1639
     69 HM71       13.7503    1.0953   14.0560 H         1 FAD         0.0507
     70 HM72       14.3431    2.6721   14.6799 H         1 FAD         0.0507
     71 HM73       13.8360    1.3857   15.8266 H         1 FAD         0.0507
     72 HM81       15.2979    3.0369   16.5527 H         1 FAD         0.0564
     73 HM82       17.0190    3.5502   16.5193 H         1 FAD         0.0564
     74 HM83       16.4427    2.4221   17.7929 H         1 FAD         0.0564
     75 H9         18.6390    1.2910   16.7230 H         1 FAD         0.1708
     76 H1'1       21.5903    0.2076   15.2038 H         1 FAD         0.1004
     77 H1'2       20.3307    1.0469   16.1710 H         1 FAD         0.1004
     78 H2'        21.4878   -1.7791   16.8058 H         1 FAD         0.0537
     79 HO2'       19.0616   -1.6741   17.3048 H         1 FAD         0.4082
     80 H3'        21.5298    1.0156   18.1516 H         1 FAD         0.0996
     81 HO3'       23.1120    0.8433   16.1939 H         1 FAD         0.4185
     82 H4'        22.7871   -1.7307   18.9541 H         1 FAD         0.0380
     83 HO4'       20.4189   -1.6490   19.5440 H         1 FAD         0.4139
     84 H5'1       24.2294    0.3444   19.2636 H         1 FAD         0.0674
     85 H5'2       22.8943    1.0550   20.2327 H         1 FAD         0.0674
     86 HOP2       26.3384    0.7464   21.3998 H         1 FAD         0.4937
@<TRIPOS>BOND
     1    1    2 2
     2    1    3 1
     3    1    4 1
     4    1   53 1
     5    3   54 1
     6    4    5 1
     7    5    6 1
     8    5   55 1
     9    5   56 1
    10    6    7 1
    11    6    8 1
    12    6   57 1
    13    7   12 1
    14    8    9 1
    15    8   10 1
    16    8   58 1
    17    9   59 1
    18   10   11 1
    19   10   12 1
    20   10   60 1
    21   11   61 1
    22   12   13 1
    23   12   62 1
    24   13   14 ar
    25   13   22 ar
    26   14   15 ar
    27   14   63 1
    28   15   16 ar
    29   16   17 ar
    30   16   22 ar
    31   17   18 1
    32   17   19 ar
    33   18   64 1
    34   18   65 1
    35   19   20 ar
    36   20   21 ar
    37   20   66 1
    38   21   22 ar
    39   23   24 ar
    40   23   40 ar
    41   24   25 2
    42   24   26 ar
    43   26   27 ar
    44   26   67 1
    45   27   28 2
    46   27   29 ar
    47   29   30 ar
    48   29   40 1
    49   30   31 ar
    50   31   32 ar
    51   31   38 ar
    52   32   33 ar
    53   32   68 1
    54   33   34 1
    55   33   35 ar
    56   34   69 1
    57   34   70 1
    58   34   71 1
    59   35   36 1
    60   35   37 ar
    61   36   72 1
    62   36   73 1
    63   36   74 1
    64   37   38 ar
    65   37   75 1
    66   38   39 ar
    67   39   40 ar
    68   39   41 1
    69   41   42 1
    70   41   76 1
    71   41   77 1
    72   42   43 1
    73   42   44 1
    74   42   78 1
    75   43   79 1
    76   44   45 1
    77   44   46 1
    78   44   80 1
    79   45   81 1
    80   46   47 1
    81   46   48 1
    82   46   82 1
    83   47   83 1
    84   48   49 1
    85   48   84 1
    86   48   85 1
    87   49   50 1
    88   50   51 2
    89   50   52 1
    90   50   53 1
    91   52   86 1
@<TRIPOS>SUBSTRUCTURE
     1 FAD         1 GROUP   0 A     ****
@<TRIPOS>MOLECULE
[5-(6-amino-7,8-dihydropurin-8-ylium-9-yl)-3,4-dihydroxy-tetrahydrofuran-2-yl]methyl [[5-(7,8-dimethyl-2,4-dioxo-benzo[g]pteridin-10-yl)-2,3,4-trihydroxy-pentoxy]-hydroxy-phosphoryl] phosphate
   86    91     1     0     0
SMALL
USER_CHARGES

@<TRIPOS>ATOM
      1 PA         21.8380    0.8050   23.1700 P.3       1 FAD         1.5621
      2 O1A        21.3030   -0.5190   22.7220 O.2       1 FAD        -0.8206
      3 O2A        21.2420    1.9380   22.7450 O.3       1 FAD        -0.8206
      4 O5B        21.5190    0.6820   24.6440 O.3       1 FAD        -0.5676
      5 C5B        21.8970    1.6430   25.6850 C.3       1 FAD         0.2316
      6 C4B        20.9970    1.3300   26.9450 C.3       1 FAD         0.0926
      7 O4B        21.4600    2.2240   28.0530 O.3       1 FAD        -0.3652
      8 C3B        19.4600    1.6220   26.8060 C.3       1 FAD         0.0770
      9 O3B        18.6710    0.5790   27.2900 O.3       1 FAD        -0.5656
     10 C2B        19.2980    2.9730   27.5740 C.3       1 FAD         0.0878
     11 O2B        18.0040    3.1220   28.1030 O.3       1 FAD        -0.5748
     12 C1B        20.2760    2.7830   28.6990 C.3       1 FAD         0.3879
     13 N9A        20.8010    4.0200   29.2670 N.pl3     1 FAD        -0.5662
     14 C8A        21.1540    5.1530   28.5750 C.cat     1 FAD         0.2874
     15 N7A        21.6680    6.0970   29.3600 N.pl3     1 FAD        -0.5101
     16 C5A        21.5630    5.5850   30.6310 C.ar      1 FAD        -0.2789
     17 C6A        21.9270    6.1470   31.9320 C.ar      1 FAD         0.7625
     18 N6A        22.3520    7.3730   32.0980 N.pl3     1 FAD        -0.9429
     19 N1A        21.5850    5.3620   32.9970 N.ar      1 FAD        -0.7489
     20 C2A        21.0280    4.1270   32.8470 C.ar      1 FAD         0.7159
     21 N3A        20.7580    3.4920   31.6950 N.ar      1 FAD        -0.6845
     22 C4A        21.0940    4.2440   30.6070 C.ar      1 FAD         0.6280
     23 N1         21.1130   -2.2310   14.3340 N.ar      1 FAD        -0.6870
     24 C2         21.3700   -3.3170   13.6190 C.ar      1 FAD         0.8515
     25 O2         22.4720   -3.7950   13.5580 O.2       1 FAD        -0.5870
     26 N3         20.3350   -4.0620   12.9920 N.am      1 FAD        -0.6177
     27 C4         19.0640   -3.5450   12.8700 C.ar      1 FAD         0.6313
     28 O4         18.2010   -4.1990   12.3240 O.2       1 FAD        -0.5800
     29 C4X        18.8420   -2.2200   13.4310 C.ar      1 FAD         0.2429
     30 N5         17.6210   -1.6430   13.3240 N.ar      1 FAD        -0.4209
     31 C5X        17.4010   -0.5070   14.0540 C.ar      1 FAD         0.0302
     32 C6         16.0920    0.0300   14.0340 C.ar      1 FAD        -0.0401
     33 C7         15.7290    1.0490   14.8790 C.ar      1 FAD        -0.1123
     34 C7M        14.3190    1.5870   14.8590 C.3       1 FAD        -0.0508
     35 C8         16.6660    1.5470   15.8520 C.ar      1 FAD        -0.0067
     36 C8M        16.3340    2.7180   16.7390 C.3       1 FAD        -0.0664
     37 C9         17.9420    0.9810   15.9280 C.ar      1 FAD        -0.1841
     38 C9A        18.3310    0.0200   14.9920 C.ar      1 FAD         0.1677
     39 N10        19.6330   -0.5660   14.9940 N.pl3     1 FAD        -0.5582
     40 C10        19.8920   -1.6530   14.2710 C.ar      1 FAD         0.6201
     41 C1'        20.6850    0.0690   15.8130 C.3       1 FAD         0.2022
     42 C2'        21.0540   -0.7970   17.0450 C.3       1 FAD         0.0875
     43 O2'        19.8580   -1.0730   17.7680 O.3       1 FAD        -0.5906
     44 C3'        21.9860    0.0460   17.9030 C.3       1 FAD         0.1099
     45 O3'        23.1720    0.2940   17.1450 O.3       1 FAD        -0.5974
     46 C4'        22.3780   -0.7320   19.1670 C.3       1 FAD         0.1390
     47 O4'        21.2310   -1.0360   19.9620 O.3       1 FAD        -0.6297
     48 C5'        23.3750    0.1170   19.9180 C.3       1 FAD         0.1456
     49 O5'        23.8840   -0.6520   21.1830 O.3       1 FAD        -0.5967
     50 P          24.5070    0.1030   22.3450 P.3       1 FAD         1.7840
     51 O1P        24.9820   -0.9910   23.3090 O.2       1 FAD        -0.8402
     52 O2P        25.4370    1.0540   21.9500 O.3       1 FAD        -0.8070
     53 O3P        23.4730    0.8660   23.0320 O.3       1 FAD        -0.8065
     54 H51A       22.9631    1.5210   25.9270 H         1 FAD         0.0120
     55 H52A       21.7181    2.6659   25.3221 H         1 FAD         0.0120
     56 H4B        21.1215    0.2571   27.1533 H         1 FAD         0.1374
     57 H3B        19.0330    1.6103   25.7923 H         1 FAD         0.0567
     58 HO3A       18.7161   -0.4115   26.8137 H         1 FAD         0.4212
     59 H2B        19.4002    3.8970   26.9859 H         1 FAD         0.0815
     60 HO2A       17.1481    3.2725   27.4286 H         1 FAD         0.4469
     61 H1B        19.7898    2.2057   29.4992 H         1 FAD         0.1517
     62 H8A        21.0350    5.2920   27.4870 H         1 FAD         0.2897
     63 H61A       22.6212    7.9848   31.2244 H         1 FAD         0.4540
     64 H62A       22.4402    7.7921   33.1112 H         1 FAD         0.4540
     65 H2A        20.7640    3.5760   33.7660 H         1 FAD         0.0861
     66 HN3        20.5432   -5.0668   12.5956 H         1 FAD         0.3454
     67 H6         15.3300   -0.3580   13.3370 H         1 FAD         0.1590
     68 HM71       13.7503    1.0953   14.0560 H         1 FAD         0.0475
     69 HM72       14.3431    2.6721   14.6799 H         1 FAD         0.0475
     70 HM73       13.8360    1.3857   15.8266 H         1 FAD         0.0475
     71 HM81       15.2979    3.0369   16.5527 H         1 FAD         0.0551
     72 HM82       17.0190    3.5502   16.5193 H         1 FAD         0.0551
     73 HM83       16.4427    2.4221   17.7929 H         1 FAD         0.0551
     74 H9         18.6390    1.2910   16.7230 H         1 FAD         0.1695
     75 H1'1       21.5903    0.2076   15.2038 H         1 FAD         0.1001
     76 H1'2       20.3307    1.0469   16.1710 H         1 FAD         0.1001
     77 H2'        21.4878   -1.7791   16.8058 H         1 FAD         0.0726
     78 HO2'       19.0616   -1.6741   17.3048 H         1 FAD         0.4050
     79 H3'        21.5298    1.0156   18.1516 H         1 FAD         0.0452
     80 HO3'       23.1120    0.8433   16.1939 H         1 FAD         0.4303
     81 H4'        22.7871   -1.7307   18.9541 H         1 FAD         0.0623
     82 HO4'       20.4189   -1.6490   19.5440 H         1 FAD         0.4361
     83 H5'1       24.2294    0.3444   19.2636 H         1 FAD         0.0704
     84 H5'2       22.8943    1.0550   20.2327 H         1 FAD         0.0704
     85 HOP2       26.3384    0.7464   21.3998 H         1 FAD         0.4985
     86 H86        22.0513    7.0295   28.9202 H         1 FAD         0.5048
@<TRIPOS>BOND
     1    1    2 2
     2    1    3 1
     3    1    4 1
     4    1   53 1
     5    4    5 1
     6    5    6 1
     7    5   54 1
     8    5   55 1
     9    6    7 1
    10    6    8 1
    11    6   56 1
    12    7   12 1
    13    8    9 1
    14    8   10 1
    15    8   57 1
    16    9   58 1
    17   10   11 1
    18   10   12 1
    19   10   59 1
    20   11   60 1
    21   12   13 1
    22   12   61 1
    23   13   14 ar
    24   13   22 ar
    25   14   15 ar
    26   14   62 1
    27   15   16 ar
    28   15   86 1
    29   16   17 ar
    30   16   22 ar
    31   17   18 1
    32   17   19 ar
    33   18   63 1
    34   18   64 1
    35   19   20 ar
    36   20   21 ar
    37   20   65 1
    38   21   22 ar
    39   23   24 ar
    40   23   40 ar
    41   24   25 2
    42   24   26 ar
    43   26   27 ar
    44   26   66 1
    45   27   28 2
    46   27   29 ar
    47   29   30 ar
    48   29   40 1
    49   30   31 ar
    50   31   32 ar
    51   31   38 ar
    52   32   33 ar
    53   32   67 1
    54   33   34 1
    55   33   35 ar
    56   34   68 1
    57   34   69 1
    58   34   70 1
    59   35   36 1
    60   35   37 ar
    61   36   71 1
    62   36   72 1
    63   36   73 1
    64   37   38 ar
    65   37   74 1
    66   38   39 ar
    67   39   40 ar
    68   39   41 1
    69   41   42 1
    70   41   75 1
    71   41   76 1
    72   42   43 1
    73   42   44 1
    74   42   77 1
    75   43   78 1
    76   44   45 1
    77   44   46 1
    78   44   79 1
    79   45   80 1
    80   46   47 1
    81   46   48 1
    82   46   81 1
    83   47   82 1
    84   48   49 1
    85   48   83 1
    86   48   84 1
    87   49   50 1
    88   50   51 2
    89   50   52 1
    90   50   53 1
    91   52   85 1
@<TRIPOS>SUBSTRUCTURE
     1 FAD         1 GROUP   0 A     ****
@<TRIPOS>MOLECULE
[[5-(6-amino-7,8-dihydropurin-8-ylium-9-yl)-3,4-dihydroxy-tetrahydrofuran-2-yl]methoxy-hydroxy-phosphoryl] [5-(7,8-dimethyl-2,4-dioxo-benzo[g]pteridin-10-yl)-2,3,4-trihydroxy-pentyl] phosphate
   86    91     1     0     0
SMALL
USER_CHARGES

@<TRIPOS>ATOM
      1 PA         21.8380    0.8050   23.1700 P.3       1 FAD         1.7517
      2 O1A        21.3030   -0.5190   22.7220 O.2       1 FAD        -0.8462
      3 O2A        21.2420    1.9380   22.7450 O.3       1 FAD        -0.7942
      4 O5B        21.5190    0.6820   24.6440 O.3       1 FAD        -0.5779
      5 C5B        21.8970    1.6430   25.6850 C.3       1 FAD         0.1798
      6 C4B        20.9970    1.3300   26.9450 C.3       1 FAD         0.0754
      7 O4B        21.4600    2.2240   28.0530 O.3       1 FAD        -0.4000
      8 C3B        19.4600    1.6220   26.8060 C.3       1 FAD         0.0996
      9 O3B        18.6710    0.5790   27.2900 O.3       1 FAD        -0.5937
     10 C2B        19.2980    2.9730   27.5740 C.3       1 FAD         0.1261
     11 O2B        18.0040    3.1220   28.1030 O.3       1 FAD        -0.5767
     12 C1B        20.2760    2.7830   28.6990 C.3       1 FAD         0.3915
     13 N9A        20.8010    4.0200   29.2670 N.pl3     1 FAD        -0.5585
     14 C8A        21.1540    5.1530   28.5750 C.cat     1 FAD         0.2801
     15 N7A        21.6680    6.0970   29.3600 N.pl3     1 FAD        -0.5060
     16 C5A        21.5630    5.5850   30.6310 C.ar      1 FAD        -0.2813
     17 C6A        21.9270    6.1470   31.9320 C.ar      1 FAD         0.7734
     18 N6A        22.3520    7.3730   32.0980 N.pl3     1 FAD        -0.9485
     19 N1A        21.5850    5.3620   32.9970 N.ar      1 FAD        -0.7478
     20 C2A        21.0280    4.1270   32.8470 C.ar      1 FAD         0.7217
     21 N3A        20.7580    3.4920   31.6950 N.ar      1 FAD        -0.6828
     22 C4A        21.0940    4.2440   30.6070 C.ar      1 FAD         0.6316
     23 N1         21.1130   -2.2310   14.3340 N.ar      1 FAD        -0.6915
     24 C2         21.3700   -3.3170   13.6190 C.ar      1 FAD         0.8523
     25 O2         22.4720   -3.7950   13.5580 O.2       1 FAD        -0.5918
     26 N3         20.3350   -4.0620   12.9920 N.am      1 FAD        -0.6179
     27 C4         19.0640   -3.5450   12.8700 C.ar      1 FAD         0.6318
     28 O4         18.2010   -4.1990   12.3240 O.2       1 FAD        -0.5844
     29 C4X        18.8420   -2.2200   13.4310 C.ar      1 FAD         0.2372
     30 N5         17.6210   -1.6430   13.3240 N.ar      1 FAD        -0.4223
     31 C5X        17.4010   -0.5070   14.0540 C.ar      1 FAD         0.0276
     32 C6         16.0920    0.0300   14.0340 C.ar      1 FAD        -0.0415
     33 C7         15.7290    1.0490   14.8790 C.ar      1 FAD        -0.1168
     34 C7M        14.3190    1.5870   14.8590 C.3       1 FAD        -0.0495
     35 C8         16.6660    1.5470   15.8520 C.ar      1 FAD        -0.0032
     36 C8M        16.3340    2.7180   16.7390 C.3       1 FAD        -0.0682
     37 C9         17.9420    0.9810   15.9280 C.ar      1 FAD        -0.1809
     38 C9A        18.3310    0.0200   14.9920 C.ar      1 FAD         0.1691
     39 N10        19.6330   -0.5660   14.9940 N.pl3     1 FAD        -0.5535
     40 C10        19.8920   -1.6530   14.2710 C.ar      1 FAD         0.6228
     41 C1'        20.6850    0.0690   15.8130 C.3       1 FAD         0.2015
     42 C2'        21.0540   -0.7970   17.0450 C.3       1 FAD         0.0870
     43 O2'        19.8580   -1.0730   17.7680 O.3       1 FAD        -0.5938
     44 C3'        21.9860    0.0460   17.9030 C.3       1 FAD         0.0970
     45 O3'        23.1720    0.2940   17.1450 O.3       1 FAD        -0.5962
     46 C4'        22.3780   -0.7320   19.1670 C.3       1 FAD         0.1507
     47 O4'        21.2310   -1.0360   19.9620 O.3       1 FAD        -0.6335
     48 C5'        23.3750    0.1170   19.9180 C.3       1 FAD         0.1538
     49 O5'        23.8840   -0.6520   21.1830 O.3       1 FAD        -0.5795
     50 P          24.5070    0.1030   22.3450 P.3       1 FAD         1.5345
     51 O1P        24.9820   -0.9910   23.3090 O.2       1 FAD        -0.8056
     52 O2P        25.4370    1.0540   21.9500 O.3       1 FAD        -0.8056
     53 O3P        23.4730    0.8660   23.0320 O.3       1 FAD        -0.7870
     54 HOA2       20.1466    2.0306   22.7825 H         1 FAD         0.4695
     55 H51A       22.9631    1.5210   25.9270 H         1 FAD         0.0554
     56 H52A       21.7181    2.6659   25.3221 H         1 FAD         0.0554
     57 H4B        21.1215    0.2571   27.1533 H         1 FAD         0.1303
     58 H3B        19.0330    1.6103   25.7923 H         1 FAD         0.0605
     59 HO3A       18.7161   -0.4115   26.8137 H         1 FAD         0.4638
     60 H2B        19.4002    3.8970   26.9859 H         1 FAD         0.0822
     61 HO2A       17.1481    3.2725   27.4286 H         1 FAD         0.4536
     62 H1B        19.7898    2.2057   29.4992 H         1 FAD         0.1551
     63 H8A        21.0350    5.2920   27.4870 H         1 FAD         0.2718
     64 H61A       22.6212    7.9848   31.2244 H         1 FAD         0.4595
     65 H62A       22.4402    7.7921   33.1112 H         1 FAD         0.4595
     66 H2A        20.7640    3.5760   33.7660 H         1 FAD         0.0897
     67 HN3        20.5432   -5.0668   12.5956 H         1 FAD         0.3440
     68 H6         15.3300   -0.3580   13.3370 H         1 FAD         0.1575
     69 HM71       13.7503    1.0953   14.0560 H         1 FAD         0.0463
     70 HM72       14.3431    2.6721   14.6799 H         1 FAD         0.0463
     71 HM73       13.8360    1.3857   15.8266 H         1 FAD         0.0463
     72 HM81       15.2979    3.0369   16.5527 H         1 FAD         0.0571
     73 HM82       17.0190    3.5502   16.5193 H         1 FAD         0.0571
     74 HM83       16.4427    2.4221   17.7929 H         1 FAD         0.0571
     75 H9         18.6390    1.2910   16.7230 H         1 FAD         0.1764
     76 H1'1       21.5903    0.2076   15.2038 H         1 FAD         0.1005
     77 H1'2       20.3307    1.0469   16.1710 H         1 FAD         0.1005
     78 H2'        21.4878   -1.7791   16.8058 H         1 FAD         0.0727
     79 HO2'       19.0616   -1.6741   17.3048 H         1 FAD         0.4021
     80 H3'        21.5298    1.0156   18.1516 H         1 FAD         0.0390
     81 HO3'       23.1120    0.8433   16.1939 H         1 FAD         0.4201
     82 H4'        22.7871   -1.7307   18.9541 H         1 FAD         0.0621
     83 HO4'       20.4189   -1.6490   19.5440 H         1 FAD         0.4524
     84 H5'1       24.2294    0.3444   19.2636 H         1 FAD         0.0470
     85 H5'2       22.8943    1.0550   20.2327 H         1 FAD         0.0470
     86 H86        22.0513    7.0295   28.9202 H         1 FAD         0.5021
@<TRIPOS>BOND
     1    1    2 2
     2    1    3 1
     3    1    4 1
     4    1   53 1
     5    3   54 1
     6    4    5 1
     7    5    6 1
     8    5   55 1
     9    5   56 1
    10    6    7 1
    11    6    8 1
    12    6   57 1
    13    7   12 1
    14    8    9 1
    15    8   10 1
    16    8   58 1
    17    9   59 1
    18   10   11 1
    19   10   12 1
    20   10   60 1
    21   11   61 1
    22   12   13 1
    23   12   62 1
    24   13   14 ar
    25   13   22 ar
    26   14   15 ar
    27   14   63 1
    28   15   16 ar
    29   15   86 1
    30   16   17 ar
    31   16   22 ar
    32   17   18 1
    33   17   19 ar
    34   18   64 1
    35   18   65 1
    36   19   20 ar
    37   20   21 ar
    38   20   66 1
    39   21   22 ar
    40   23   24 ar
    41   23   40 ar
    42   24   25 2
    43   24   26 ar
    44   26   27 ar
    45   26   67 1
    46   27   28 2
    47   27   29 ar
    48   29   30 ar
    49   29   40 1
    50   30   31 ar
    51   31   32 ar
    52   31   38 ar
    53   32   33 ar
    54   32   68 1
    55   33   34 1
    56   33   35 ar
    57   34   69 1
    58   34   70 1
    59   34   71 1
    60   35   36 1
    61   35   37 ar
    62   36   72 1
    63   36   73 1
    64   36   74 1
    65   37   38 ar
    66   37   75 1
    67   38   39 ar
    68   39   40 ar
    69   39   41 1
    70   41   42 1
    71   41   76 1
    72   41   77 1
    73   42   43 1
    74   42   44 1
    75   42   78 1
    76   43   79 1
    77   44   45 1
    78   44   46 1
    79   44   80 1
    80   45   81 1
    81   46   47 1
    82   46   48 1
    83   46   82 1
    84   47   83 1
    85   48   49 1
    86   48   84 1
    87   48   85 1
    88   49   50 1
    89   50   51 2
    90   50   52 1
    91   50   53 1
@<TRIPOS>SUBSTRUCTURE
     1 FAD         1 GROUP   0 A     ****
@<TRIPOS>MOLECULE
[[5-(6-amino-1,8-dihydropurine-6,8-diylium-7-id-9-yl)-3,4-dihydroxy-tetrahydrofuran-2-yl]methoxy-hydroxy-phosphoryl] [5-(7,8-dimethyl-2,4-dioxo-benzo[g]pteridin-10-yl)-2,3,4-trihydroxy-pentyl] hydrogen phosphate
   87    92     1     0     0
SMALL
USER_CHARGES

@<TRIPOS>ATOM
      1 PA         21.8380    0.8050   23.1700 P.3       1 FAD         1.7881
      2 O1A        21.3030   -0.5190   22.7220 O.2       1 FAD        -0.7737
      3 O2A        21.2420    1.9380   22.7450 O.3       1 FAD        -0.8052
      4 O5B        21.5190    0.6820   24.6440 O.3       1 FAD        -0.5653
      5 C5B        21.8970    1.6430   25.6850 C.3       1 FAD         0.1542
      6 C4B        20.9970    1.3300   26.9450 C.3       1 FAD         0.1300
      7 O4B        21.4600    2.2240   28.0530 O.3       1 FAD        -0.3775
      8 C3B        19.4600    1.6220   26.8060 C.3       1 FAD         0.0891
      9 O3B        18.6710    0.5790   27.2900 O.3       1 FAD        -0.5720
     10 C2B        19.2980    2.9730   27.5740 C.3       1 FAD         0.0639
     11 O2B        18.0040    3.1220   28.1030 O.3       1 FAD        -0.5750
     12 C1B        20.2760    2.7830   28.6990 C.3       1 FAD         0.4207
     13 N9A        20.8010    4.0200   29.2670 N.pl3     1 FAD        -0.4653
     14 C8A        21.1540    5.1530   28.5750 C.cat     1 FAD         0.1740
     15 N7A        21.6680    6.0970   29.3600 N.ar      1 FAD        -0.2557
     16 C5A        21.5630    5.5850   30.6310 C.ar      1 FAD        -0.1372
     17 C6A        21.9270    6.1470   31.9320 C.cat     1 FAD         0.4936
     18 N6A        22.3520    7.3730   32.0980 N.pl3     1 FAD        -0.8073
     19 N1A        21.5850    5.3620   32.9970 N.pl3     1 FAD        -0.6925
     20 C2A        21.0280    4.1270   32.8470 C.ar      1 FAD         0.6469
     21 N3A        20.7580    3.4920   31.6950 N.ar      1 FAD        -0.5204
     22 C4A        21.0940    4.2440   30.6070 C.ar      1 FAD         0.2992
     23 N1         21.1130   -2.2310   14.3340 N.ar      1 FAD        -0.7152
     24 C2         21.3700   -3.3170   13.6190 C.ar      1 FAD         0.8506
     25 O2         22.4720   -3.7950   13.5580 O.2       1 FAD        -0.5806
     26 N3         20.3350   -4.0620   12.9920 N.am      1 FAD        -0.6137
     27 C4         19.0640   -3.5450   12.8700 C.ar      1 FAD         0.6293
     28 O4         18.2010   -4.1990   12.3240 O.2       1 FAD        -0.5610
     29 C4X        18.8420   -2.2200   13.4310 C.ar      1 FAD         0.2421
     30 N5         17.6210   -1.6430   13.3240 N.ar      1 FAD        -0.4135
     31 C5X        17.4010   -0.5070   14.0540 C.ar      1 FAD         0.0357
     32 C6         16.0920    0.0300   14.0340 C.ar      1 FAD        -0.0382
     33 C7         15.7290    1.0490   14.8790 C.ar      1 FAD        -0.1046
     34 C7M        14.3190    1.5870   14.8590 C.3       1 FAD        -0.0546
     35 C8         16.6660    1.5470   15.8520 C.ar      1 FAD        -0.0077
     36 C8M        16.3340    2.7180   16.7390 C.3       1 FAD        -0.0646
     37 C9         17.9420    0.9810   15.9280 C.ar      1 FAD        -0.1750
     38 C9A        18.3310    0.0200   14.9920 C.ar      1 FAD         0.1548
     39 N10        19.6330   -0.5660   14.9940 N.pl3     1 FAD        -0.5731
     40 C10        19.8920   -1.6530   14.2710 C.ar      1 FAD         0.6103
     41 C1'        20.6850    0.0690   15.8130 C.3       1 FAD         0.1714
     42 C2'        21.0540   -0.7970   17.0450 C.3       1 FAD         0.0989
     43 O2'        19.8580   -1.0730   17.7680 O.3       1 FAD        -0.5749
     44 C3'        21.9860    0.0460   17.9030 C.3       1 FAD         0.1463
     45 O3'        23.1720    0.2940   17.1450 O.3       1 FAD        -0.5873
     46 C4'        22.3780   -0.7320   19.1670 C.3       1 FAD         0.1185
     47 O4'        21.2310   -1.0360   19.9620 O.3       1 FAD        -0.5649
     48 C5'        23.3750    0.1170   19.9180 C.3       1 FAD         0.1327
     49 O5'        23.8840   -0.6520   21.1830 O.3       1 FAD        -0.6235
     50 P          24.5070    0.1030   22.3450 P.3       1 FAD         1.7930
     51 O1P        24.9820   -0.9910   23.3090 O.2       1 FAD        -0.8267
     52 O2P        25.4370    1.0540   21.9500 O.3       1 FAD        -0.7894
     53 O3P        23.4730    0.8660   23.0320 O.3       1 FAD        -0.7969
     54 HOA2       20.1466    2.0306   22.7825 H         1 FAD         0.5149
     55 H51A       22.9631    1.5210   25.9270 H         1 FAD         0.0603
     56 H52A       21.7181    2.6659   25.3221 H         1 FAD         0.0603
     57 H4B        21.1215    0.2571   27.1533 H         1 FAD         0.1343
     58 H3B        19.0330    1.6103   25.7923 H         1 FAD         0.0746
     59 HO3A       18.7161   -0.4115   26.8137 H         1 FAD         0.4303
     60 H2B        19.4002    3.8970   26.9859 H         1 FAD         0.0684
     61 HO2A       17.1481    3.2725   27.4286 H         1 FAD         0.4282
     62 H1B        19.7898    2.2057   29.4992 H         1 FAD         0.1391
     63 H8A        21.0350    5.2920   27.4870 H         1 FAD         0.2548
     64 H61A       22.6212    7.9848   31.2244 H         1 FAD         0.4863
     65 H62A       22.4402    7.7921   33.1112 H         1 FAD         0.4863
     66 H2A        20.7640    3.5760   33.7660 H         1 FAD         0.1067
     67 HN3        20.5432   -5.0668   12.5956 H         1 FAD         0.3525
     68 H6         15.3300   -0.3580   13.3370 H         1 FAD         0.1665
     69 HM71       13.7503    1.0953   14.0560 H         1 FAD         0.0518
     70 HM72       14.3431    2.6721   14.6799 H         1 FAD         0.0518
     71 HM73       13.8360    1.3857   15.8266 H         1 FAD         0.0518
     72 HM81       15.2979    3.0369   16.5527 H         1 FAD         0.0551
     73 HM82       17.0190    3.5502   16.5193 H         1 FAD         0.0551
     74 HM83       16.4427    2.4221   17.7929 H         1 FAD         0.0551
     75 H9         18.6390    1.2910   16.7230 H         1 FAD         0.1599
     76 H1'1       21.5903    0.2076   15.2038 H         1 FAD         0.0963
     77 H1'2       20.3307    1.0469   16.1710 H         1 FAD         0.0963
     78 H2'        21.4878   -1.7791   16.8058 H         1 FAD         0.0571
     79 HO2'       19.0616   -1.6741   17.3048 H         1 FAD         0.4087
     80 H3'        21.5298    1.0156   18.1516 H         1 FAD         0.0979
     81 HO3'       23.1120    0.8433   16.1939 H         1 FAD         0.4166
     82 H4'        22.7871   -1.7307   18.9541 H         1 FAD         0.0423
     83 HO4'       20.4189   -1.6490   19.5440 H         1 FAD         0.4052
     84 H5'1       24.2294    0.3444   19.2636 H         1 FAD         0.0651
     85 H5'2       22.8943    1.0550   20.2327 H         1 FAD         0.0651
     86 HOP2       26.3384    0.7464   21.3998 H         1 FAD         0.4886
     87 H87        21.7570    5.7209   34.0225 H         1 FAD         0.4861
@<TRIPOS>BOND
     1    1    2 2
     2    1    3 1
     3    1    4 1
     4    1   53 1
     5    3   54 1
     6    4    5 1
     7    5    6 1
     8    5   55 1
     9    5   56 1
    10    6    7 1
    11    6    8 1
    12    6   57 1
    13    7   12 1
    14    8    9 1
    15    8   10 1
    16    8   58 1
    17    9   59 1
    18   10   11 1
    19   10   12 1
    20   10   60 1
    21   11   61 1
    22   12   13 1
    23   12   62 1
    24   13   14 ar
    25   13   22 ar
    26   14   15 ar
    27   14   63 1
    28   15   16 ar
    29   16   17 ar
    30   16   22 ar
    31   17   18 1
    32   17   19 ar
    33   18   64 1
    34   18   65 1
    35   19   20 ar
    36   19   87 1
    37   20   21 ar
    38   20   66 1
    39   21   22 ar
    40   23   24 ar
    41   23   40 ar
    42   24   25 2
    43   24   26 ar
    44   26   27 ar
    45   26   67 1
    46   27   28 2
    47   27   29 ar
    48   29   30 ar
    49   29   40 1
    50   30   31 ar
    51   31   32 ar
    52   31   38 ar
    53   32   33 ar
    54   32   68 1
    55   33   34 1
    56   33   35 ar
    57   34   69 1
    58   34   70 1
    59   34   71 1
    60   35   36 1
    61   35   37 ar
    62   36   72 1
    63   36   73 1
    64   36   74 1
    65   37   38 ar
    66   37   75 1
    67   38   39 ar
    68   39   40 ar
    69   39   41 1
    70   41   42 1
    71   41   76 1
    72   41   77 1
    73   42   43 1
    74   42   44 1
    75   42   78 1
    76   43   79 1
    77   44   45 1
    78   44   46 1
    79   44   80 1
    80   45   81 1
    81   46   47 1
    82   46   48 1
    83   46   82 1
    84   47   83 1
    85   48   49 1
    86   48   84 1
    87   48   85 1
    88   49   50 1
    89   50   51 2
    90   50   52 1
    91   50   53 1
    92   52   86 1
@<TRIPOS>SUBSTRUCTURE
     1 FAD         1 GROUP   0 A     ****
@<TRIPOS>MOLECULE
[[5-(6-amino-7,8-dihydropurin-8-ylium-9-yl)-3,4-dihydroxy-tetrahydrofuran-2-yl]methoxy-hydroxy-phosphoryl] [5-(7,8-dimethyl-2,4-dioxo-benzo[g]pteridin-10-yl)-2,3,4-trihydroxy-pentyl] hydrogen phosphate
   87    92     1     0     0
SMALL
USER_CHARGES

@<TRIPOS>ATOM
      1 PA         21.8380    0.8050   23.1700 P.3       1 FAD         1.7859
      2 O1A        21.3030   -0.5190   22.7220 O.2       1 FAD        -0.7703
      3 O2A        21.2420    1.9380   22.7450 O.3       1 FAD        -0.8051
      4 O5B        21.5190    0.6820   24.6440 O.3       1 FAD        -0.5709
      5 C5B        21.8970    1.6430   25.6850 C.3       1 FAD         0.1512
      6 C4B        20.9970    1.3300   26.9450 C.3       1 FAD         0.1264
      7 O4B        21.4600    2.2240   28.0530 O.3       1 FAD        -0.3892
      8 C3B        19.4600    1.6220   26.8060 C.3       1 FAD         0.0910
      9 O3B        18.6710    0.5790   27.2900 O.3       1 FAD        -0.5712
     10 C2B        19.2980    2.9730   27.5740 C.3       1 FAD         0.0712
     11 O2B        18.0040    3.1220   28.1030 O.3       1 FAD        -0.5658
     12 C1B        20.2760    2.7830   28.6990 C.3       1 FAD         0.4196
     13 N9A        20.8010    4.0200   29.2670 N.pl3     1 FAD        -0.5736
     14 C8A        21.1540    5.1530   28.5750 C.cat     1 FAD         0.2850
     15 N7A        21.6680    6.0970   29.3600 N.pl3     1 FAD        -0.4908
     16 C5A        21.5630    5.5850   30.6310 C.ar      1 FAD        -0.2899
     17 C6A        21.9270    6.1470   31.9320 C.ar      1 FAD         0.7810
     18 N6A        22.3520    7.3730   32.0980 N.pl3     1 FAD        -0.9385
     19 N1A        21.5850    5.3620   32.9970 N.ar      1 FAD        -0.7409
     20 C2A        21.0280    4.1270   32.8470 C.ar      1 FAD         0.7312
     21 N3A        20.7580    3.4920   31.6950 N.ar      1 FAD        -0.6914
     22 C4A        21.0940    4.2440   30.6070 C.ar      1 FAD         0.6387
     23 N1         21.1130   -2.2310   14.3340 N.ar      1 FAD        -0.7165
     24 C2         21.3700   -3.3170   13.6190 C.ar      1 FAD         0.8509
     25 O2         22.4720   -3.7950   13.5580 O.2       1 FAD        -0.5805
     26 N3         20.3350   -4.0620   12.9920 N.am      1 FAD        -0.6134
     27 C4         19.0640   -3.5450   12.8700 C.ar      1 FAD         0.6293
     28 O4         18.2010   -4.1990   12.3240 O.2       1 FAD        -0.5591
     29 C4X        18.8420   -2.2200   13.4310 C.ar      1 FAD         0.2420
     30 N5         17.6210   -1.6430   13.3240 N.ar      1 FAD        -0.4128
     31 C5X        17.4010   -0.5070   14.0540 C.ar      1 FAD         0.0358
     32 C6         16.0920    0.0300   14.0340 C.ar      1 FAD        -0.0376
     33 C7         15.7290    1.0490   14.8790 C.ar      1 FAD        -0.1033
     34 C7M        14.3190    1.5870   14.8590 C.3       1 FAD        -0.0555
     35 C8         16.6660    1.5470   15.8520 C.ar      1 FAD        -0.0075
     36 C8M        16.3340    2.7180   16.7390 C.3       1 FAD        -0.0652
     37 C9         17.9420    0.9810   15.9280 C.ar      1 FAD        -0.1759
     38 C9A        18.3310    0.0200   14.9920 C.ar      1 FAD         0.1536
     39 N10        19.6330   -0.5660   14.9940 N.pl3     1 FAD        -0.5736
     40 C10        19.8920   -1.6530   14.2710 C.ar      1 FAD         0.6105
     41 C1'        20.6850    0.0690   15.8130 C.3       1 FAD         0.1714
     42 C2'        21.0540   -0.7970   17.0450 C.3       1 FAD         0.0981
     43 O2'        19.8580   -1.0730   17.7680 O.3       1 FAD        -0.5756
     44 C3'        21.9860    0.0460   17.9030 C.3       1 FAD         0.1461
     45 O3'        23.1720    0.2940   17.1450 O.3       1 FAD        -0.5874
     46 C4'        22.3780   -0.7320   19.1670 C.3       1 FAD         0.1194
     47 O4'        21.2310   -1.0360   19.9620 O.3       1 FAD        -0.5628
     48 C5'        23.3750    0.1170   19.9180 C.3       1 FAD         0.1317
     49 O5'        23.8840   -0.6520   21.1830 O.3       1 FAD        -0.6230
     50 P          24.5070    0.1030   22.3450 P.3       1 FAD         1.7889
     51 O1P        24.9820   -0.9910   23.3090 O.2       1 FAD        -0.8229
     52 O2P        25.4370    1.0540   21.9500 O.3       1 FAD        -0.7975
     53 O3P        23.4730    0.8660   23.0320 O.3       1 FAD        -0.7981
     54 HOA2       20.1466    2.0306   22.7825 H         1 FAD         0.5184
     55 H51A       22.9631    1.5210   25.9270 H         1 FAD         0.0632
     56 H52A       21.7181    2.6659   25.3221 H         1 FAD         0.0632
     57 H4B        21.1215    0.2571   27.1533 H         1 FAD         0.1379
     58 H3B        19.0330    1.6103   25.7923 H         1 FAD         0.0774
     59 HO3A       18.7161   -0.4115   26.8137 H         1 FAD         0.4353
     60 H2B        19.4002    3.8970   26.9859 H         1 FAD         0.0657
     61 HO2A       17.1481    3.2725   27.4286 H         1 FAD         0.4331
     62 H1B        19.7898    2.2057   29.4992 H         1 FAD         0.1583
     63 H8A        21.0350    5.2920   27.4870 H         1 FAD         0.2759
     64 H61A       22.6212    7.9848   31.2244 H         1 FAD         0.4650
     65 H62A       22.4402    7.7921   33.1112 H         1 FAD         0.4650
     66 H2A        20.7640    3.5760   33.7660 H         1 FAD         0.0956
     67 HN3        20.5432   -5.0668   12.5956 H         1 FAD         0.3533
     68 H6         15.3300   -0.3580   13.3370 H         1 FAD         0.1672
     69 HM71       13.7503    1.0953   14.0560 H         1 FAD         0.0525
     70 HM72       14.3431    2.6721   14.6799 H         1 FAD         0.0525
     71 HM73       13.8360    1.3857   15.8266 H         1 FAD         0.0525
     72 HM81       15.2979    3.0369   16.5527 H         1 FAD         0.0554
     73 HM82       17.0190    3.5502   16.5193 H         1 FAD         0.0554
     74 HM83       16.4427    2.4221   17.7929 H         1 FAD         0.0554
     75 H9         18.6390    1.2910   16.7230 H         1 FAD         0.1587
     76 H1'1       21.5903    0.2076   15.2038 H         1 FAD         0.0967
     77 H1'2       20.3307    1.0469   16.1710 H         1 FAD         0.0967
     78 H2'        21.4878   -1.7791   16.8058 H         1 FAD         0.0569
     79 HO2'       19.0616   -1.6741   17.3048 H         1 FAD         0.4095
     80 H3'        21.5298    1.0156   18.1516 H         1 FAD         0.0991
     81 HO3'       23.1120    0.8433   16.1939 H         1 FAD         0.4173
     82 H4'        22.7871   -1.7307   18.9541 H         1 FAD         0.0438
     83 HO4'       20.4189   -1.6490   19.5440 H         1 FAD         0.4035
     84 H5'1       24.2294    0.3444   19.2636 H         1 FAD         0.0651
     85 H5'2       22.8943    1.0550   20.2327 H         1 FAD         0.0651
     86 HOP2       26.3384    0.7464   21.3998 H         1 FAD         0.4891
     87 H87        22.0513    7.0295   28.9202 H         1 FAD         0.5072
@<TRIPOS>BOND
     1    1    2 2
     2    1    3 1
     3    1    4 1
     4    1   53 1
     5    3   54 1
     6    4    5 1
     7    5    6 1
     8    5   55 1
     9    5   56 1
    10    6    7 1
    11    6    8 1
    12    6   57 1
    13    7   12 1
    14    8    9 1
    15    8   10 1
    16    8   58 1
    17    9   59 1
    18   10   11 1
    19   10   12 1
    20   10   60 1
    21   11   61 1
    22   12   13 1
    23   12   62 1
    24   13   14 ar
    25   13   22 ar
    26   14   15 ar
    27   14   63 1
    28   15   16 ar
    29   15   87 1
    30   16   17 ar
    31   16   22 ar
    32   17   18 1
    33   17   19 ar
    34   18   64 1
    35   18   65 1
    36   19   20 ar
    37   20   21 ar
    38   20   66 1
    39   21   22 ar
    40   23   24 ar
    41   23   40 ar
    42   24   25 2
    43   24   26 ar
    44   26   27 ar
    45   26   67 1
    46   27   28 2
    47   27   29 ar
    48   29   30 ar
    49   29   40 1
    50   30   31 ar
    51   31   32 ar
    52   31   38 ar
    53   32   33 ar
    54   32   68 1
    55   33   34 1
    56   33   35 ar
    57   34   69 1
    58   34   70 1
    59   34   71 1
    60   35   36 1
    61   35   37 ar
    62   36   72 1
    63   36   73 1
    64   36   74 1
    65   37   38 ar
    66   37   75 1
    67   38   39 ar
    68   39   40 ar
    69   39   41 1
    70   41   42 1
    71   41   76 1
    72   41   77 1
    73   42   43 1
    74   42   44 1
    75   42   78 1
    76   43   79 1
    77   44   45 1
    78   44   46 1
    79   44   80 1
    80   45   81 1
    81   46   47 1
    82   46   48 1
    83   46   82 1
    84   47   83 1
    85   48   49 1
    86   48   84 1
    87   48   85 1
    88   49   50 1
    89   50   51 2
    90   50   52 1
    91   50   53 1
    92   52   86 1
@<TRIPOS>SUBSTRUCTURE
     1 FAD         1 GROUP   0 A     ****
@<TRIPOS>MOLECULE
[[3,4-dihydroxy-5-(6-imino-1~{H}-purin-9-yl)tetrahydrofuran-2-yl]methoxy-oxido-phosphoryl] [5-(7,8-dimethyl-2,4-dioxo-benzo[g]pteridin-10-yl)-2,3,4-trihydroxy-pentyl] phosphate
   84    89     1     0     0
SMALL
USER_CHARGES

@<TRIPOS>ATOM
      1 PA         21.8380    0.8050   23.1700 P.3       1 FAD         1.5398
      2 O1A        21.3030   -0.5190   22.7220 O.2       1 FAD        -0.8485
      3 O2A        21.2420    1.9380   22.7450 O.3       1 FAD        -0.8485
      4 O5B        21.5190    0.6820   24.6440 O.3       1 FAD        -0.5592
      5 C5B        21.8970    1.6430   25.6850 C.3       1 FAD         0.1812
      6 C4B        20.9970    1.3300   26.9450 C.3       1 FAD         0.1086
      7 O4B        21.4600    2.2240   28.0530 O.3       1 FAD        -0.4009
      8 C3B        19.4600    1.6220   26.8060 C.3       1 FAD         0.0915
      9 O3B        18.6710    0.5790   27.2900 O.3       1 FAD        -0.6007
     10 C2B        19.2980    2.9730   27.5740 C.3       1 FAD         0.0591
     11 O2B        18.0040    3.1220   28.1030 O.3       1 FAD        -0.5934
     12 C1B        20.2760    2.7830   28.6990 C.3       1 FAD         0.2478
     13 N9A        20.8010    4.0200   29.2670 N.pl3     1 FAD        -0.1903
     14 C8A        21.1540    5.1530   28.5750 C.ar      1 FAD         0.4465
     15 N7A        21.6680    6.0970   29.3600 N.ar      1 FAD        -0.6127
     16 C5A        21.5630    5.5850   30.6310 C.ar      1 FAD         0.2178
     17 C6A        21.9270    6.1470   31.9320 C.ar      1 FAD         0.6123
     18 N6A        22.3520    7.3730   32.0980 N.2       1 FAD        -0.8162
     19 N1A        21.5850    5.3620   32.9970 N.pl3     1 FAD        -0.8626
     20 C2A        21.0280    4.1270   32.8470 C.ar      1 FAD         0.6065
     21 N3A        20.7580    3.4920   31.6950 N.ar      1 FAD        -0.5741
     22 C4A        21.0940    4.2440   30.6070 C.ar      1 FAD         0.0135
     23 N1         21.1130   -2.2310   14.3340 N.ar      1 FAD        -0.6875
     24 C2         21.3700   -3.3170   13.6190 C.ar      1 FAD         0.8543
     25 O2         22.4720   -3.7950   13.5580 O.2       1 FAD        -0.6058
     26 N3         20.3350   -4.0620   12.9920 N.am      1 FAD        -0.6214
     27 C4         19.0640   -3.5450   12.8700 C.ar      1 FAD         0.6336
     28 O4         18.2010   -4.1990   12.3240 O.2       1 FAD        -0.6075
     29 C4X        18.8420   -2.2200   13.4310 C.ar      1 FAD         0.2271
     30 N5         17.6210   -1.6430   13.3240 N.ar      1 FAD        -0.4267
     31 C5X        17.4010   -0.5070   14.0540 C.ar      1 FAD         0.0190
     32 C6         16.0920    0.0300   14.0340 C.ar      1 FAD        -0.0525
     33 C7         15.7290    1.0490   14.8790 C.ar      1 FAD        -0.1190
     34 C7M        14.3190    1.5870   14.8590 C.3       1 FAD        -0.0464
     35 C8         16.6660    1.5470   15.8520 C.ar      1 FAD        -0.0004
     36 C8M        16.3340    2.7180   16.7390 C.3       1 FAD        -0.0712
     37 C9         17.9420    0.9810   15.9280 C.ar      1 FAD        -0.1727
     38 C9A        18.3310    0.0200   14.9920 C.ar      1 FAD         0.1751
     39 N10        19.6330   -0.5660   14.9940 N.pl3     1 FAD        -0.5363
     40 C10        19.8920   -1.6530   14.2710 C.ar      1 FAD         0.6244
     41 C1'        20.6850    0.0690   15.8130 C.3       1 FAD         0.1869
     42 C2'        21.0540   -0.7970   17.0450 C.3       1 FAD         0.0843
     43 O2'        19.8580   -1.0730   17.7680 O.3       1 FAD        -0.6100
     44 C3'        21.9860    0.0460   17.9030 C.3       1 FAD         0.1035
     45 O3'        23.1720    0.2940   17.1450 O.3       1 FAD        -0.5811
     46 C4'        22.3780   -0.7320   19.1670 C.3       1 FAD         0.1416
     47 O4'        21.2310   -1.0360   19.9620 O.3       1 FAD        -0.6710
     48 C5'        23.3750    0.1170   19.9180 C.3       1 FAD         0.1353
     49 O5'        23.8840   -0.6520   21.1830 O.3       1 FAD        -0.5833
     50 P          24.5070    0.1030   22.3450 P.3       1 FAD         1.5703
     51 O1P        24.9820   -0.9910   23.3090 O.2       1 FAD        -0.8730
     52 O2P        25.4370    1.0540   21.9500 O.3       1 FAD        -0.8730
     53 O3P        23.4730    0.8660   23.0320 O.3       1 FAD        -0.7915
     54 H51A       22.9631    1.5210   25.9270 H         1 FAD         0.0336
     55 H52A       21.7181    2.6659   25.3221 H         1 FAD         0.0336
     56 H4B        21.1215    0.2571   27.1533 H         1 FAD         0.1182
     57 H3B        19.0330    1.6103   25.7923 H         1 FAD         0.0855
     58 HO3A       18.7161   -0.4115   26.8137 H         1 FAD         0.4087
     59 H2B        19.4002    3.8970   26.9859 H         1 FAD         0.0783
     60 HO2A       17.1481    3.2725   27.4286 H         1 FAD         0.4081
     61 H1B        19.7898    2.2057   29.4992 H         1 FAD         0.0974
     62 H8A        21.0350    5.2920   27.4870 H         1 FAD         0.1126
     63 H62A       21.6530    7.9920   31.6860 H         1 FAD         0.3673
     64 H2A        20.7640    3.5760   33.7660 H         1 FAD         0.0356
     65 HN3        20.5432   -5.0668   12.5956 H         1 FAD         0.3343
     66 H6         15.3300   -0.3580   13.3370 H         1 FAD         0.1474
     67 HM71       13.7503    1.0953   14.0560 H         1 FAD         0.0424
     68 HM72       14.3431    2.6721   14.6799 H         1 FAD         0.0424
     69 HM73       13.8360    1.3857   15.8266 H         1 FAD         0.0424
     70 HM81       15.2979    3.0369   16.5527 H         1 FAD         0.0608
     71 HM82       17.0190    3.5502   16.5193 H         1 FAD         0.0608
     72 HM83       16.4427    2.4221   17.7929 H         1 FAD         0.0608
     73 H9         18.6390    1.2910   16.7230 H         1 FAD         0.2009
     74 H1'1       21.5903    0.2076   15.2038 H         1 FAD         0.1114
     75 H1'2       20.3307    1.0469   16.1710 H         1 FAD         0.1114
     76 H2'        21.4878   -1.7791   16.8058 H         1 FAD         0.0702
     77 HO2'       19.0616   -1.6741   17.3048 H         1 FAD         0.4017
     78 H3'        21.5298    1.0156   18.1516 H         1 FAD         0.0490
     79 HO3'       23.1120    0.8433   16.1939 H         1 FAD         0.3997
     80 H4'        22.7871   -1.7307   18.9541 H         1 FAD         0.0488
     81 HO4'       20.4189   -1.6490   19.5440 H         1 FAD         0.4583
     82 H5'1       24.2294    0.3444   19.2636 H         1 FAD         0.0547
     83 H5'2       22.8943    1.0550   20.2327 H         1 FAD         0.0547
     84 H84        21.7570    5.7209   34.0225 H         1 FAD         0.4268
@<TRIPOS>BOND
     1    1    2 2
     2    1    3 1
     3    1    4 1
     4    1   53 1
     5    4    5 1
     6    5    6 1
     7    5   54 1
     8    5   55 1
     9    6    7 1
    10    6    8 1
    11    6   56 1
    12    7   12 1
    13    8    9 1
    14    8   10 1
    15    8   57 1
    16    9   58 1
    17   10   11 1
    18   10   12 1
    19   10   59 1
    20   11   60 1
    21   12   13 1
    22   12   61 1
    23   13   14 ar
    24   13   22 ar
    25   14   15 ar
    26   14   62 1
    27   15   16 ar
    28   16   17 ar
    29   16   22 ar
    30   17   18 2
    31   17   19 ar
    32   18   63 1
    33   19   20 ar
    34   19   84 1
    35   20   21 ar
    36   20   64 1
    37   21   22 ar
    38   23   24 ar
    39   23   40 ar
    40   24   25 2
    41   24   26 ar
    42   26   27 ar
    43   26   65 1
    44   27   28 2
    45   27   29 ar
    46   29   30 ar
    47   29   40 1
    48   30   31 ar
    49   31   32 ar
    50   31   38 ar
    51   32   33 ar
    52   32   66 1
    53   33   34 1
    54   33   35 ar
    55   34   67 1
    56   34   68 1
    57   34   69 1
    58   35   36 1
    59   35   37 ar
    60   36   70 1
    61   36   71 1
    62   36   72 1
    63   37   38 ar
    64   37   73 1
    65   38   39 ar
    66   39   40 ar
    67   39   41 1
    68   41   42 1
    69   41   74 1
    70   41   75 1
    71   42   43 1
    72   42   44 1
    73   42   76 1
    74   43   77 1
    75   44   45 1
    76   44   46 1
    77   44   78 1
    78   45   79 1
    79   46   47 1
    80   46   48 1
    81   46   80 1
    82   47   81 1
    83   48   49 1
    84   48   82 1
    85   48   83 1
    86   49   50 1
    87   50   51 2
    88   50   52 1
    89   50   53 1
@<TRIPOS>SUBSTRUCTURE
     1 FAD         1 GROUP   0 A     ****
@<TRIPOS>MOLECULE
[[3,4-dihydroxy-5-(6-imino-1~{H}-purin-9-yl)tetrahydrofuran-2-yl]methoxy-oxido-phosphoryl] [5-(7,8-dimethyl-2,4-dioxo-benzo[g]pteridin-10-yl)-2,3,4-trihydroxy-pentyl] phosphate
   84    89     1     0     0
SMALL
USER_CHARGES

@<TRIPOS>ATOM
      1 PA         21.8380    0.8050   23.1700 P.3       1 FAD         1.5398
      2 O1A        21.3030   -0.5190   22.7220 O.2       1 FAD        -0.8485
      3 O2A        21.2420    1.9380   22.7450 O.3       1 FAD        -0.8485
      4 O5B        21.5190    0.6820   24.6440 O.3       1 FAD        -0.5592
      5 C5B        21.8970    1.6430   25.6850 C.3       1 FAD         0.1812
      6 C4B        20.9970    1.3300   26.9450 C.3       1 FAD         0.1086
      7 O4B        21.4600    2.2240   28.0530 O.3       1 FAD        -0.4009
      8 C3B        19.4600    1.6220   26.8060 C.3       1 FAD         0.0915
      9 O3B        18.6710    0.5790   27.2900 O.3       1 FAD        -0.6007
     10 C2B        19.2980    2.9730   27.5740 C.3       1 FAD         0.0591
     11 O2B        18.0040    3.1220   28.1030 O.3       1 FAD        -0.5934
     12 C1B        20.2760    2.7830   28.6990 C.3       1 FAD         0.2478
     13 N9A        20.8010    4.0200   29.2670 N.pl3     1 FAD        -0.1903
     14 C8A        21.1540    5.1530   28.5750 C.ar      1 FAD         0.4465
     15 N7A        21.6680    6.0970   29.3600 N.ar      1 FAD        -0.6127
     16 C5A        21.5630    5.5850   30.6310 C.ar      1 FAD         0.2178
     17 C6A        21.9270    6.1470   31.9320 C.ar      1 FAD         0.6123
     18 N6A        22.3520    7.3730   32.0980 N.2       1 FAD        -0.8162
     19 N1A        21.5850    5.3620   32.9970 N.pl3     1 FAD        -0.8626
     20 C2A        21.0280    4.1270   32.8470 C.ar      1 FAD         0.6065
     21 N3A        20.7580    3.4920   31.6950 N.ar      1 FAD        -0.5741
     22 C4A        21.0940    4.2440   30.6070 C.ar      1 FAD         0.0135
     23 N1         21.1130   -2.2310   14.3340 N.ar      1 FAD        -0.6875
     24 C2         21.3700   -3.3170   13.6190 C.ar      1 FAD         0.8543
     25 O2         22.4720   -3.7950   13.5580 O.2       1 FAD        -0.6058
     26 N3         20.3350   -4.0620   12.9920 N.am      1 FAD        -0.6214
     27 C4         19.0640   -3.5450   12.8700 C.ar      1 FAD         0.6336
     28 O4         18.2010   -4.1990   12.3240 O.2       1 FAD        -0.6075
     29 C4X        18.8420   -2.2200   13.4310 C.ar      1 FAD         0.2271
     30 N5         17.6210   -1.6430   13.3240 N.ar      1 FAD        -0.4267
     31 C5X        17.4010   -0.5070   14.0540 C.ar      1 FAD         0.0190
     32 C6         16.0920    0.0300   14.0340 C.ar      1 FAD        -0.0525
     33 C7         15.7290    1.0490   14.8790 C.ar      1 FAD        -0.1190
     34 C7M        14.3190    1.5870   14.8590 C.3       1 FAD        -0.0464
     35 C8         16.6660    1.5470   15.8520 C.ar      1 FAD        -0.0004
     36 C8M        16.3340    2.7180   16.7390 C.3       1 FAD        -0.0712
     37 C9         17.9420    0.9810   15.9280 C.ar      1 FAD        -0.1727
     38 C9A        18.3310    0.0200   14.9920 C.ar      1 FAD         0.1751
     39 N10        19.6330   -0.5660   14.9940 N.pl3     1 FAD        -0.5363
     40 C10        19.8920   -1.6530   14.2710 C.ar      1 FAD         0.6244
     41 C1'        20.6850    0.0690   15.8130 C.3       1 FAD         0.1869
     42 C2'        21.0540   -0.7970   17.0450 C.3       1 FAD         0.0843
     43 O2'        19.8580   -1.0730   17.7680 O.3       1 FAD        -0.6100
     44 C3'        21.9860    0.0460   17.9030 C.3       1 FAD         0.1035
     45 O3'        23.1720    0.2940   17.1450 O.3       1 FAD        -0.5811
     46 C4'        22.3780   -0.7320   19.1670 C.3       1 FAD         0.1416
     47 O4'        21.2310   -1.0360   19.9620 O.3       1 FAD        -0.6710
     48 C5'        23.3750    0.1170   19.9180 C.3       1 FAD         0.1353
     49 O5'        23.8840   -0.6520   21.1830 O.3       1 FAD        -0.5833
     50 P          24.5070    0.1030   22.3450 P.3       1 FAD         1.5703
     51 O1P        24.9820   -0.9910   23.3090 O.2       1 FAD        -0.8730
     52 O2P        25.4370    1.0540   21.9500 O.3       1 FAD        -0.8730
     53 O3P        23.4730    0.8660   23.0320 O.3       1 FAD        -0.7915
     54 H51A       22.9631    1.5210   25.9270 H         1 FAD         0.0336
     55 H52A       21.7181    2.6659   25.3221 H         1 FAD         0.0336
     56 H4B        21.1215    0.2571   27.1533 H         1 FAD         0.1182
     57 H3B        19.0330    1.6103   25.7923 H         1 FAD         0.0855
     58 HO3A       18.7161   -0.4115   26.8137 H         1 FAD         0.4087
     59 H2B        19.4002    3.8970   26.9859 H         1 FAD         0.0783
     60 HO2A       17.1481    3.2725   27.4286 H         1 FAD         0.4081
     61 H1B        19.7898    2.2057   29.4992 H         1 FAD         0.0974
     62 H8A        21.0350    5.2920   27.4870 H         1 FAD         0.1126
     63 H61A       22.6050    7.7640   33.0040 H         1 FAD         0.3673
     64 H2A        20.7640    3.5760   33.7660 H         1 FAD         0.0356
     65 HN3        20.5432   -5.0668   12.5956 H         1 FAD         0.3343
     66 H6         15.3300   -0.3580   13.3370 H         1 FAD         0.1474
     67 HM71       13.7503    1.0953   14.0560 H         1 FAD         0.0424
     68 HM72       14.3431    2.6721   14.6799 H         1 FAD         0.0424
     69 HM73       13.8360    1.3857   15.8266 H         1 FAD         0.0424
     70 HM81       15.2979    3.0369   16.5527 H         1 FAD         0.0608
     71 HM82       17.0190    3.5502   16.5193 H         1 FAD         0.0608
     72 HM83       16.4427    2.4221   17.7929 H         1 FAD         0.0608
     73 H9         18.6390    1.2910   16.7230 H         1 FAD         0.2009
     74 H1'1       21.5903    0.2076   15.2038 H         1 FAD         0.1114
     75 H1'2       20.3307    1.0469   16.1710 H         1 FAD         0.1114
     76 H2'        21.4878   -1.7791   16.8058 H         1 FAD         0.0702
     77 HO2'       19.0616   -1.6741   17.3048 H         1 FAD         0.4017
     78 H3'        21.5298    1.0156   18.1516 H         1 FAD         0.0490
     79 HO3'       23.1120    0.8433   16.1939 H         1 FAD         0.3997
     80 H4'        22.7871   -1.7307   18.9541 H         1 FAD         0.0488
     81 HO4'       20.4189   -1.6490   19.5440 H         1 FAD         0.4583
     82 H5'1       24.2294    0.3444   19.2636 H         1 FAD         0.0547
     83 H5'2       22.8943    1.0550   20.2327 H         1 FAD         0.0547
     84 H84        21.7570    5.7209   34.0225 H         1 FAD         0.4268
@<TRIPOS>BOND
     1    1    2 2
     2    1    3 1
     3    1    4 1
     4    1   53 1
     5    4    5 1
     6    5    6 1
     7    5   54 1
     8    5   55 1
     9    6    7 1
    10    6    8 1
    11    6   56 1
    12    7   12 1
    13    8    9 1
    14    8   10 1
    15    8   57 1
    16    9   58 1
    17   10   11 1
    18   10   12 1
    19   10   59 1
    20   11   60 1
    21   12   13 1
    22   12   61 1
    23   13   14 ar
    24   13   22 ar
    25   14   15 ar
    26   14   62 1
    27   15   16 ar
    28   16   17 ar
    29   16   22 ar
    30   17   18 2
    31   17   19 ar
    32   18   63 1
    33   19   20 ar
    34   19   84 1
    35   20   21 ar
    36   20   64 1
    37   21   22 ar
    38   23   24 ar
    39   23   40 ar
    40   24   25 2
    41   24   26 ar
    42   26   27 ar
    43   26   65 1
    44   27   28 2
    45   27   29 ar
    46   29   30 ar
    47   29   40 1
    48   30   31 ar
    49   31   32 ar
    50   31   38 ar
    51   32   33 ar
    52   32   66 1
    53   33   34 1
    54   33   35 ar
    55   34   67 1
    56   34   68 1
    57   34   69 1
    58   35   36 1
    59   35   37 ar
    60   36   70 1
    61   36   71 1
    62   36   72 1
    63   37   38 ar
    64   37   73 1
    65   38   39 ar
    66   39   40 ar
    67   39   41 1
    68   41   42 1
    69   41   74 1
    70   41   75 1
    71   42   43 1
    72   42   44 1
    73   42   76 1
    74   43   77 1
    75   44   45 1
    76   44   46 1
    77   44   78 1
    78   45   79 1
    79   46   47 1
    80   46   48 1
    81   46   80 1
    82   47   81 1
    83   48   49 1
    84   48   82 1
    85   48   83 1
    86   49   50 1
    87   50   51 2
    88   50   52 1
    89   50   53 1
@<TRIPOS>SUBSTRUCTURE
     1 FAD         1 GROUP   0 A     ****
