@<TRIPOS>MOLECULE
AMP
   35    37     1     0     0
SMALL
USER_CHARGES

@<TRIPOS>ATOM
      1 P           8.0430   39.6860   18.8130 P.3       1 AMP         1.3130
      2 O1P         7.7740   40.6370   19.9950 O.2       1 AMP        -0.9269
      3 O2P         6.8830   38.7840   18.6430 O.3       1 AMP        -0.9269
      4 O3P         9.3160   38.8560   19.0920 O.3       1 AMP        -0.9269
      5 O5'         8.2900   40.5340   17.4630 O.3       1 AMP        -0.5415
      6 C5'         9.2750   41.5450   17.4120 C.3       1 AMP         0.2446
      7 C4'         9.9220   41.6170   16.0320 C.3       1 AMP         0.0612
      8 O4'        10.6260   40.4170   15.7520 O.3       1 AMP        -0.3747
      9 C3'         8.8990   41.8150   14.9230 C.3       1 AMP         0.0725
     10 O3'         9.2380   42.9330   14.1330 O.3       1 AMP        -0.6276
     11 C2'         8.9330   40.5290   14.1140 C.3       1 AMP         0.1052
     12 O2'         8.9320   40.7810   12.7260 O.3       1 AMP        -0.6019
     13 C1'        10.2200   39.8280   14.5300 C.3       1 AMP         0.3966
     14 N9         10.0930   38.3690   14.7560 N.pl3     1 AMP        -0.6780
     15 C8          9.3770   37.7670   15.7530 C.ar      1 AMP         0.5765
     16 N7          9.4950   36.4180   15.6450 N.ar      1 AMP        -0.5862
     17 C5         10.2870   36.1600   14.5860 C.ar      1 AMP        -0.2025
     18 C6         10.7070   34.9510   14.0630 C.ar      1 AMP         0.7005
     19 N6         10.3370   33.8060   14.6270 N.pl3     1 AMP        -0.9272
     20 N1         11.5510   34.9950   12.9590 N.ar      1 AMP        -0.8018
     21 C2         11.9150   36.1950   12.3750 C.ar      1 AMP         0.6468
     22 N3         11.4880   37.4030   12.9020 N.ar      1 AMP        -0.7059
     23 C4         10.6720   37.3690   14.0010 C.ar      1 AMP         0.5659
     24 H5'1        8.8132   42.5184   17.6339 H         1 AMP         0.0026
     25 H5'2       10.0574   41.3325   18.1554 H         1 AMP         0.0026
     26 H4'        10.6576   42.4348   16.0389 H         1 AMP         0.0652
     27 H3'         7.8915   42.0792   15.2767 H         1 AMP         0.0670
     28 HO3'        9.2569   43.9375   14.5808 H         1 AMP         0.4375
     29 H2'         8.0238   39.9212   14.2324 H         1 AMP         0.0692
     30 HO2'        8.0722   41.2836   12.2589 H         1 AMP         0.4237
     31 H1'        10.9834   39.9560   13.7484 H         1 AMP         0.0996
     32 H8          8.8060   38.2840   16.5100 H         1 AMP         0.1272
     33 HN61        9.6675   33.8139   15.4997 H         1 AMP         0.4092
     34 HN62       10.7003   32.8503   14.2211 H         1 AMP         0.4092
     35 H2         12.5410   36.1900   11.4950 H         1 AMP         0.0323
@<TRIPOS>BOND
     1    1    2 2
     2    1    3 1
     3    1    4 1
     4    1    5 1
     5    5    6 1
     6    6    7 1
     7    6   24 1
     8    6   25 1
     9    7    8 1
    10    7    9 1
    11    7   26 1
    12    8   13 1
    13    9   10 1
    14    9   11 1
    15    9   27 1
    16   10   28 1
    17   11   12 1
    18   11   13 1
    19   11   29 1
    20   12   30 1
    21   13   14 1
    22   13   31 1
    23   14   15 ar
    24   14   23 ar
    25   15   16 ar
    26   15   32 1
    27   16   17 ar
    28   17   18 ar
    29   17   23 ar
    30   18   19 1
    31   18   20 ar
    32   19   33 1
    33   19   34 1
    34   20   21 ar
    35   21   22 ar
    36   21   35 1
    37   22   23 ar
@<TRIPOS>SUBSTRUCTURE
     1 AMP         1 GROUP   0 A     ****
@<TRIPOS>MOLECULE
[5-(6-aminopurin-9-yl)-3,4-dihydroxy-tetrahydrofuran-2-yl]methyl hydrogen phosphate
   36    38     1     0     0
SMALL
USER_CHARGES

@<TRIPOS>ATOM
      1 P           8.0430   39.6860   18.8130 P.3       1 AMP         1.4224
      2 O1P         7.7740   40.6370   19.9950 O.2       1 AMP        -0.8360
      3 O2P         6.8830   38.7840   18.6430 O.3       1 AMP        -0.8360
      4 O3P         9.3160   38.8560   19.0920 O.3       1 AMP        -0.7618
      5 O5'         8.2900   40.5340   17.4630 O.3       1 AMP        -0.5608
      6 C5'         9.2750   41.5450   17.4120 C.3       1 AMP         0.1970
      7 C4'         9.9220   41.6170   16.0320 C.3       1 AMP         0.1243
      8 O4'        10.6260   40.4170   15.7520 O.3       1 AMP        -0.3853
      9 C3'         8.8990   41.8150   14.9230 C.3       1 AMP         0.0704
     10 O3'         9.2380   42.9330   14.1330 O.3       1 AMP        -0.5784
     11 C2'         8.9330   40.5290   14.1140 C.3       1 AMP         0.0689
     12 O2'         8.9320   40.7810   12.7260 O.3       1 AMP        -0.5908
     13 C1'        10.2200   39.8280   14.5300 C.3       1 AMP         0.3979
     14 N9         10.0930   38.3690   14.7560 N.pl3     1 AMP        -0.6864
     15 C8          9.3770   37.7670   15.7530 C.ar      1 AMP         0.5429
     16 N7          9.4950   36.4180   15.6450 N.ar      1 AMP        -0.5579
     17 C5         10.2870   36.1600   14.5860 C.ar      1 AMP        -0.2186
     18 C6         10.7070   34.9510   14.0630 C.ar      1 AMP         0.7278
     19 N6         10.3370   33.8060   14.6270 N.pl3     1 AMP        -0.9340
     20 N1         11.5510   34.9950   12.9590 N.ar      1 AMP        -0.7932
     21 C2         11.9150   36.1950   12.3750 C.ar      1 AMP         0.6706
     22 N3         11.4880   37.4030   12.9020 N.ar      1 AMP        -0.7180
     23 C4         10.6720   37.3690   14.0010 C.ar      1 AMP         0.5931
     24 HOP3        9.3624   38.1996   19.9735 H         1 AMP         0.4266
     25 H5'1        8.8132   42.5184   17.6339 H         1 AMP         0.0268
     26 H5'2       10.0574   41.3325   18.1554 H         1 AMP         0.0268
     27 H4'        10.6576   42.4348   16.0389 H         1 AMP         0.0932
     28 H3'         7.8915   42.0792   15.2767 H         1 AMP         0.0598
     29 HO3'        9.2569   43.9375   14.5808 H         1 AMP         0.4046
     30 H2'         8.0238   39.9212   14.2324 H         1 AMP         0.0861
     31 HO2'        8.0722   41.2836   12.2589 H         1 AMP         0.4237
     32 H1'        10.9834   39.9560   13.7484 H         1 AMP         0.1192
     33 H8          8.8060   38.2840   16.5100 H         1 AMP         0.0817
     34 HN61        9.6675   33.8139   15.4997 H         1 AMP         0.4244
     35 HN62       10.7003   32.8503   14.2211 H         1 AMP         0.4244
     36 H2         12.5410   36.1900   11.4950 H         1 AMP         0.0446
@<TRIPOS>BOND
     1    1    2 2
     2    1    3 1
     3    1    4 1
     4    1    5 1
     5    4   24 1
     6    5    6 1
     7    6    7 1
     8    6   25 1
     9    6   26 1
    10    7    8 1
    11    7    9 1
    12    7   27 1
    13    8   13 1
    14    9   10 1
    15    9   11 1
    16    9   28 1
    17   10   29 1
    18   11   12 1
    19   11   13 1
    20   11   30 1
    21   12   31 1
    22   13   14 1
    23   13   32 1
    24   14   15 ar
    25   14   23 ar
    26   15   16 ar
    27   15   33 1
    28   16   17 ar
    29   17   18 ar
    30   17   23 ar
    31   18   19 1
    32   18   20 ar
    33   19   34 1
    34   19   35 1
    35   20   21 ar
    36   21   22 ar
    37   21   36 1
    38   22   23 ar
@<TRIPOS>SUBSTRUCTURE
     1 AMP         1 GROUP   0 A     ****
